ELEM
H
C
O
X /63.546/
END
SPEC
CH2O
CH3OH
CO
CO2
H2
H2O
HCOOCH3
HCOOH
END
THERMO
END
REACTIONS
END
