units(length='cm', time='s', quantity='mol', act_energy='kcal/mol')

ideal_gas(name='gas',
          elements="H D T C Ci O Oi N Ne Ar He Si S F Cl Br I X",
          species="""N2          Ne          H2(2)       CO(3)
                     CO2(4)      H2O(5)      CH2O(6)     HCOOH(7)
                     CH3OH(8)    HCOOCH3(9)  CH4(41)     C2H4O2(63)
                     C2H4O3(79)  CH4O2(171)  COCO(225)   OCCO(227)
                     C2H4O(231)  S(233)      C2H6O(236)  S(256)
                     S(257)      S(309)      S(500)      S(515)
                     S(580)      S(598)      OCCCO(719)  S(1117)""",
          reactions='gas-*',
          transport='Mix',
          initial_state=state(temperature=300.0, pressure=OneAtm))

ideal_interface(name='surface1',
                elements="H D T C Ci O Oi N Ne Ar He Si S F Cl Br I X",
                species="""X(1)        H*(10)      O*(11)      OH*(12)
                          H2O*(13)    CO*(14)     CO2*(15)    HCO*(16)
                          HCOO*(17)   COOH*(18)   CH2O*(19)   CH3O*(20)
                          CH3O2*(21)  CH3OH*(22)  CH3OX(46)   CH3O2X(49)
                          H2X(50)     CH2O2X(51)  CH3X(52)    SX(53)
                          SX(54)      SX(55)      SX(156)     CHOX(168)
                          CH2OX(169)  SX(188)     SX(190)     SX(193)
                          SX(213)     SX(217)     CH4X(238)   SX(248)
                          SX(259)     SX(262)     SX(318)     SX(357)
                          SX(385)     SX(386)     SX(387)     SX(388)
                          SX(390)     SX(450)     C2HOX(465)  SX(496)
                          SX(497)     SX(523)     SX(538)     SX(553)
                          SX(577)     SX(582)     SX(592)     SX(605)
                          SX(616)     SX(747)     SX(748)     SX(874)
                          SX(993)     SX(1013)    SX(1097)    SX(1122)
                          SX(1168)    SX(1172)    SX(1181)    SX(1182)
                          SX(1246)    SX(1423)    SX(1428)    SX(1446)
                          SX(1453)    SX(1479)    SX(1499)    SX(1557)
                          SX(1563)    SX(1754)    SX(1755)    SX(1756)
                          SX(2009)    SX(2111)    SX(2644)    SX(2922)
                          SX(2923)    SX(3163)    SX(4271)""",
                site_density=2.943e-09,
                phases="gas",
          reactions='surface1-*',
                initial_state=state(temperature=300.0, pressure=OneAtm))

#-------------------------------------------------------------------------------
# Element data
#-------------------------------------------------------------------------------

element(symbol='Ci', atomic_mass=13.003)
element(symbol='D', atomic_mass=2.014)
element(symbol='Oi', atomic_mass=18.0)
element(symbol='T', atomic_mass=3.016)
element(symbol='X', atomic_mass=195.083)
#-------------------------------------------------------------------------------
# Species data
#-------------------------------------------------------------------------------

species(name='N2',
        atoms='N:2',
        thermo=(NASA([200.00, 1000.00],
                     [ 3.53101000E+00, -1.23661000E-04, -5.02999000E-07,
                       2.43531000E-09, -1.40881000E-12, -1.04698000E+03,
                       2.96747000E+00]),
                NASA([1000.00, 6000.00],
                     [ 2.95258000E+00,  1.39690000E-03, -4.92632000E-07,
                       7.86010000E-11, -4.60755000E-15, -9.23949000E+02,
                       5.87189000E+00])),
        transport=gas_transport(geom='linear',
                                diam=3.621,
                                well_depth=97.53,
                                polar=1.76,
                                rot_relax=4.0))

species(name='Ne',
        atoms='Ne:1',
        thermo=(NASA([200.00, 1000.00],
                     [ 2.50000000E+00,  0.00000000E+00,  0.00000000E+00,
                       0.00000000E+00,  0.00000000E+00, -7.45375000E+02,
                       3.35532000E+00]),
                NASA([1000.00, 6000.00],
                     [ 2.50000000E+00,  0.00000000E+00,  0.00000000E+00,
                       0.00000000E+00,  0.00000000E+00, -7.45375000E+02,
                       3.35532000E+00])),
        transport=gas_transport(geom='atom',
                                diam=3.758,
                                well_depth=148.6))

species(name='H2(2)',
        atoms='H:2',
        thermo=(NASA([100.00, 1959.08],
                     [ 3.43536412E+00,  2.12710353E-04, -2.78625043E-07,
                       3.40267167E-10, -7.76031998E-14, -1.03135984E+03,
                      -3.90841732E+00]),
                NASA([1959.08, 5000.00],
                     [ 2.78816583E+00,  5.87640942E-04,  1.59010417E-07,
                      -5.52739026E-11,  4.34310984E-15, -5.96144270E+02,
                       1.12732655E-01])),
        transport=gas_transport(geom='linear',
                                diam=2.92,
                                well_depth=38.0,
                                polar=0.79,
                                rot_relax=280.0))

species(name='CO(3)',
        atoms='C:1 O:1',
        thermo=(NASA([100.00, 1571.63],
                     [ 3.56838038E+00, -8.52129500E-04,  2.48918819E-06,
                      -1.56331996E-09,  3.13598127E-13, -1.42842550E+04,
                       3.57912028E+00]),
                NASA([1571.63, 5000.00],
                     [ 2.91305202E+00,  1.64659937E-03, -6.88625686E-07,
                       1.21039677E-10, -7.84035796E-15, -1.41808768E+04,
                       6.71054299E+00])),
        transport=gas_transport(geom='linear',
                                diam=3.65,
                                well_depth=98.1,
                                polar=1.95,
                                rot_relax=1.8))

species(name='CO2(4)',
        atoms='C:1 O:2',
        thermo=(NASA([100.00, 978.21],
                     [ 3.28084634E+00,  2.50183460E-03,  8.08199998E-06,
                      -1.20511416E-08,  4.66547255E-12, -4.84008304E+04,
                       6.00080795E+00]),
                NASA([978.21, 5000.00],
                     [ 4.67426743E+00,  2.60964031E-03, -9.85689857E-07,
                       1.95713857E-10, -1.49836245E-14, -4.89512140E+04,
                      -2.11073617E+00])),
        transport=gas_transport(geom='linear',
                                diam=3.763,
                                well_depth=244.001,
                                polar=2.65,
                                rot_relax=2.1))

species(name='H2O(5)',
        atoms='H:2 O:1',
        thermo=(NASA([100.00, 1130.24],
                     [ 4.05763610E+00, -7.87938871E-04,  2.90878480E-06,
                      -1.47520039E-09,  2.12847506E-13, -3.02815866E+04,
                      -3.11365027E-01]),
                NASA([1130.24, 5000.00],
                     [ 2.84324866E+00,  2.75108838E-03, -7.81033120E-07,
                       1.07244016E-10, -5.79395308E-15, -2.99586120E+04,
                       5.91043011E+00])),
        transport=gas_transport(geom='nonlinear',
                                diam=2.605,
                                well_depth=572.402,
                                dipole=1.844,
                                rot_relax=4.0))

species(name='CH2O(6)',
        atoms='C:1 H:2 O:1',
        thermo=(NASA([100.00, 1070.44],
                     [ 4.12927802E+00, -4.08401318E-03,  2.03229341E-05,
                      -1.83524244E-08,  5.37975522E-12, -1.44294640E+04,
                       3.22418463E+00]),
                NASA([1070.44, 5000.00],
                     [ 2.21172442E+00,  7.94265679E-03, -3.34193053E-06,
                       6.28471401E-10, -4.40431446E-14, -1.42974456E+04,
                       1.13048985E+01])),
        transport=gas_transport(geom='nonlinear',
                                diam=3.59,
                                well_depth=498.002,
                                rot_relax=2.0))

species(name='HCOOH(7)',
        atoms='C:1 H:2 O:2',
        thermo=(NASA([100.00, 993.73],
                     [ 3.76241335E+00, -9.43947850E-04,  3.38781957E-05,
                      -4.04987780E-08,  1.43988412E-11, -4.68212105E+04,
                       7.63273333E+00]),
                NASA([993.73, 5000.00],
                     [ 5.64497050E+00,  7.55187503E-03, -3.20854541E-06,
                       6.58926362E-10, -5.05061286E-14, -4.79889887E+04,
                      -5.43086107E+00])),
        transport=gas_transport(geom='nonlinear',
                                diam=3.626,
                                well_depth=481.8,
                                dipole=1.7,
                                rot_relax=1.0))

species(name='CH3OH(8)',
        atoms='C:1 H:4 O:1',
        thermo=(NASA([100.00, 1035.75],
                     [ 3.84006214E+00,  1.38241998E-03,  1.91667191E-05,
                      -2.01568660E-08,  6.39102259E-12, -2.56083087E+04,
                       5.90978137E+00]),
                NASA([1035.75, 5000.00],
                     [ 2.79184298E+00,  1.15827852E-02, -4.51551928E-06,
                       8.21206706E-10, -5.67063250E-14, -2.57211674E+04,
                       9.41061586E+00])),
        transport=gas_transport(geom='nonlinear',
                                diam=3.626,
                                well_depth=481.802,
                                rot_relax=1.0))

species(name='HCOOCH3(9)',
        atoms='C:2 H:4 O:2',
        thermo=(NASA([100.00, 1141.77],
                     [ 3.28123251E+00,  1.13180591E-02,  1.84477587E-05,
                      -2.41945197E-08,  7.75136395E-12, -4.46725565E+04,
                       1.20363735E+01]),
                NASA([1141.77, 5000.00],
                     [ 4.90989100E+00,  1.87529727E-02, -8.58328635E-06,
                       1.66847339E-09, -1.18612079E-13, -4.59010044E+04,
                       2.12202036E-01])),
        transport=gas_transport(geom='nonlinear',
                                diam=5.234,
                                well_depth=377.356))

species(name='CH4(41)',
        atoms='C:1 H:4',
        thermo=(NASA([100.00, 1084.12],
                     [ 4.20541524E+00, -5.35557362E-03,  2.51123265E-05,
                      -2.13762843E-08,  5.97523937E-12, -1.01619433E+04,
                      -9.21279283E-01]),
                NASA([1084.12, 5000.00],
                     [ 9.08265721E-01,  1.14540858E-02, -4.57173828E-06,
                       8.29191671E-10, -5.66314895E-14, -9.71997444E+03,
                       1.39930944E+01])),
        transport=gas_transport(geom='nonlinear',
                                diam=3.746,
                                well_depth=141.4,
                                polar=2.6,
                                rot_relax=13.0))

species(name='C2H4O2(63)',
        atoms='C:2 H:4 O:2',
        thermo=(NASA([100.00, 953.77],
                     [ 2.75093679E+00,  1.45252207E-02,  3.55422419E-05,
                      -6.12353004E-08,  2.54832555E-11, -3.99342731E+04,
                       1.35047088E+01]),
                NASA([953.77, 5000.00],
                     [ 1.27141752E+01,  5.31905349E-03, -1.21603544E-06,
                       2.71931769E-10, -2.64266325E-14, -4.33165824E+04,
                      -4.18586307E+01])),
        transport=gas_transport(geom='nonlinear',
                                diam=5.738,
                                well_depth=428.975))

species(name='C2H4O3(79)',
        atoms='C:2 H:4 O:3',
        thermo=(NASA([100.00, 1080.10],
                     [ 2.34774041E+00,  3.07995656E-02, -1.42113024E-05,
                      -2.66922649E-09,  2.84865515E-12, -7.07576686E+04,
                       1.72680345E+01]),
                NASA([1080.10, 5000.00],
                     [ 9.50823268E+00,  1.46020075E-02, -6.04930560E-06,
                       1.13943240E-09, -8.05092967E-14, -7.29064683E+04,
                      -2.06156837E+01])),
        transport=gas_transport(geom='nonlinear',
                                diam=6.312,
                                well_depth=516.245))

species(name='CH4O2(171)',
        atoms='C:1 H:4 O:2',
        thermo=(NASA([10.00, 639.76],
                     [ 3.92739000E+00,  3.97483000E-03,  6.56102000E-05,
                      -1.23760000E-07,  6.75141000E-11, -4.82805000E+04,
                       6.35739000E+00]),
                NASA([639.76, 3000.00],
                     [ 4.46055000E+00,  1.93316000E-02, -1.42176000E-05,
                       5.09053000E-09, -6.81740000E-13, -4.87312000E+04,
                       1.03399000E+00])),
        transport=gas_transport(geom='nonlinear',
                                diam=5.898,
                                well_depth=436.691))

species(name='COCO(225)',
        atoms='C:2 H:6 O:2',
        thermo=(NASA([100.00, 916.53],
                     [ 2.31174687E+00,  2.23370122E-02,  3.35202426E-05,
                      -6.96367921E-08,  3.14454455E-11, -4.68597500E+04,
                       1.52955377E+01]),
                NASA([916.53, 5000.00],
                     [ 1.54934495E+01,  3.38468738E-03,  1.40345827E-06,
                      -3.53046917E-10,  2.08759349E-14, -5.08963005E+04,
                      -5.59887531E+01])),
        transport=gas_transport(geom='nonlinear',
                                diam=5.709,
                                well_depth=402.716))

species(name='OCCO(227)',
        atoms='C:2 H:6 O:2',
        thermo=(NASA([100.00, 1023.84],
                     [ 2.45006155E+00,  3.47926537E-02, -3.03303076E-05,
                       1.60435197E-08, -3.66599881E-12, -5.00259550E+04,
                       1.53943704E+01]),
                NASA([1023.84, 5000.00],
                     [ 6.37169814E+00,  1.94715478E-02, -7.88403928E-06,
                       1.42795275E-09, -9.72296828E-14, -5.08289901E+04,
                      -3.61770032E+00])),
        transport=gas_transport(geom='nonlinear',
                                diam=6.214,
                                well_depth=453.933))

species(name='C2H4O(231)',
        atoms='C:2 H:4 O:1',
        thermo=(NASA([100.00, 1028.81],
                     [ 3.57991319E+00,  5.18996203E-03,  2.26893060E-05,
                      -2.73736957E-08,  9.28455869E-12, -2.13697369E+04,
                       8.96975431E+00]),
                NASA([1028.81, 5000.00],
                     [ 4.08568882E+00,  1.39060358E-02, -5.59365394E-06,
                       1.04608143E-09, -7.38729265E-14, -2.20391558E+04,
                       3.76773341E+00])),
        transport=gas_transport(geom='nonlinear',
                                diam=3.97,
                                well_depth=436.001,
                                rot_relax=2.0))

species(name='S(233)',
        atoms='C:2 H:4 O:2',
        thermo=(NASA([100.00, 1020.01],
                     [ 3.21748826E+00,  1.02436173E-02,  2.71475099E-05,
                      -3.76380133E-08,  1.35868741E-11, -5.35456809E+04,
                       1.20525287E+01]),
                NASA([1020.01, 5000.00],
                     [ 6.36119375E+00,  1.55129261E-02, -6.47988274E-06,
                       1.25442971E-09, -9.10572754E-14, -5.51024351E+04,
                      -7.66369748E+00])),
        transport=gas_transport(geom='nonlinear',
                                diam=5.643,
                                well_depth=452.392))

species(name='C2H6O(236)',
        atoms='C:2 H:6 O:1',
        thermo=(NASA([100.00, 984.00],
                     [ 3.24025884E+00,  1.04859660E-02,  2.63967401E-05,
                      -3.69293176E-08,  1.36710427E-11, -2.99902844E+04,
                       1.11433043E+01]),
                NASA([984.00, 5000.00],
                     [ 5.68494415E+00,  1.61313246E-02, -5.96365484E-06,
                       1.08897147E-09, -7.69620396E-14, -3.12258222E+04,
                      -4.44490663E+00])),
        transport=gas_transport(geom='nonlinear',
                                diam=4.53,
                                well_depth=362.6,
                                rot_relax=1.5))

species(name='S(256)',
        atoms='C:2 H:6 O:3',
        thermo=(NASA([100.00, 951.97],
                     [ 1.85100511E+00,  4.87910421E-02, -5.40140121E-05,
                       3.34714110E-08, -8.48599947E-12, -7.40873052E+04,
                       2.07066627E+01]),
                NASA([951.97, 5000.00],
                     [ 8.73100344E+00,  1.98822549E-02, -8.46251246E-06,
                       1.57124318E-09, -1.08497782E-13, -7.53972011E+04,
                      -1.21466304E+01])),
        transport=gas_transport(geom='nonlinear',
                                diam=6.938,
                                well_depth=524.008))

species(name='S(257)',
        atoms='C:2 H:6 O:2',
        thermo=(NASA([100.00, 1099.30],
                     [ 2.35364034E+00,  3.17203913E-02, -1.81437500E-05,
                       2.55799267E-09,  9.21874722E-13, -5.48775387E+04,
                       1.61951036E+01]),
                NASA([1099.30, 5000.00],
                     [ 8.66060883E+00,  1.58334467E-02, -6.10219155E-06,
                       1.09930095E-09, -7.53908040E-14, -5.66909018E+04,
                      -1.67703163E+01])),
        transport=gas_transport(geom='nonlinear',
                                diam=6.245,
                                well_depth=456.211))

species(name='S(309)',
        atoms='C:3 H:6 O:3',
        thermo=(NASA([100.00, 1768.31],
                     [ 2.01197080E+00,  4.31330064E-02, -2.71156389E-05,
                       8.27538645E-09, -1.03299727E-12, -6.81765181E+04,
                       2.13622266E+01]),
                NASA([1768.31, 5000.00],
                     [ 1.08885115E+01,  2.30538233E-02, -1.00830918E-05,
                       1.85397290E-09, -1.25149670E-13, -7.13158081E+04,
                      -2.65217804E+01])),
        transport=gas_transport(geom='nonlinear',
                                diam=6.25,
                                well_depth=463.366))

species(name='S(500)',
        atoms='C:3 H:6 O:3',
        thermo=(NASA([100.00, 805.23],
                     [ 1.90562850E+00,  4.99901353E-02, -4.93591744E-05,
                       3.15901722E-08, -9.13028232E-12, -7.55596859E+04,
                       2.09342805E+01]),
                NASA([805.23, 5000.00],
                     [ 5.66034624E+00,  3.13384267E-02, -1.46142622E-05,
                       2.82405170E-09, -1.99229864E-13, -7.61643664E+04,
                       3.63332344E+00])),
        transport=gas_transport(geom='nonlinear',
                                diam=6.629,
                                well_depth=532.294))

species(name='S(515)',
        atoms='C:3 H:8 O:2',
        thermo=(NASA([100.00, 1273.75],
                     [ 1.66700949E+00,  4.90303168E-02, -3.91423565E-05,
                       1.72778223E-08, -3.17717263E-12, -5.43760456E+04,
                       2.07942412E+01]),
                NASA([1273.75, 5000.00],
                     [ 9.73529140E+00,  2.36934854E-02, -9.30538039E-06,
                       1.66164272E-09, -1.12203897E-13, -5.64314620E+04,
                      -2.00828841E+01])),
        transport=gas_transport(geom='nonlinear',
                                diam=6.56,
                                well_depth=473.26))

species(name='S(580)',
        atoms='C:3 H:6 O:4',
        thermo=(NASA([100.00, 1427.28],
                     [ 9.91488175E-01,  5.84630060E-02, -4.91682104E-05,
                       2.07958393E-08, -3.49555972E-12, -9.59489677E+04,
                       2.90234940E+01]),
                NASA([1427.28, 5000.00],
                     [ 1.51101558E+01,  1.88947190E-02, -7.58365615E-06,
                       1.37203323E-09, -9.32967046E-14, -9.99792008E+04,
                      -4.41138336E+01])),
        transport=gas_transport(geom='nonlinear',
                                diam=7.33,
                                well_depth=598.855))

species(name='S(598)',
        atoms='C:3 H:8 O:3',
        thermo=(NASA([100.00, 879.85],
                     [ 1.06252767E+00,  6.72520088E-02, -7.88483433E-05,
                       5.29872461E-08, -1.45895486E-11, -7.35812480E+04,
                       2.49818316E+01]),
                NASA([879.85, 5000.00],
                     [ 9.71908522E+00,  2.78990429E-02, -1.17609396E-05,
                       2.15702700E-09, -1.47319034E-13, -7.51046095E+04,
                      -1.56733628E+01])),
        transport=gas_transport(geom='nonlinear',
                                diam=7.255,
                                well_depth=541.248))

species(name='OCCCO(719)',
        atoms='C:3 H:8 O:2',
        thermo=(NASA([100.00, 1028.79],
                     [ 1.83219582E+00,  4.92223024E-02, -4.28851739E-05,
                       2.23901748E-08, -5.06671537E-12, -5.28645111E+04,
                       1.98589342E+01]),
                NASA([1028.79, 5000.00],
                     [ 7.34247692E+00,  2.77980177E-02, -1.16481120E-05,
                       2.14826410E-09, -1.47859487E-13, -5.39982973E+04,
                      -6.88139577E+00])),
        transport=gas_transport(geom='nonlinear',
                                diam=6.53,
                                well_depth=471.09))

species(name='S(1117)',
        atoms='C:4 H:6 O:4',
        thermo=(NASA([100.00, 474.35],
                     [ 1.79155890E+00,  5.78043490E-02, -2.64293089E-05,
                      -4.72331113E-08,  5.77823346E-11, -1.01111924E+05,
                       2.36629998E+01]),
                NASA([474.35, 5000.00],
                     [ 5.12544758E+00,  4.29187939E-02, -2.11862991E-05,
                       4.18418542E-09, -2.98343193E-13, -1.01577030E+05,
                       8.49669965E+00])),
        transport=gas_transport(geom='nonlinear',
                                diam=7.015,
                                well_depth=610.069))

species(name='X(1)',
        atoms='X:1',
        thermo=(NASA([100.00, 1554.80],
                     [ 7.10139498E-03, -4.25619522E-05,  8.98533016E-08,
                      -7.80193649E-11,  2.32465471E-14, -8.76101712E-01,
                      -3.11211229E-02]),
                NASA([1554.80, 5000.00],
                     [ 1.60299900E-01, -2.52235409E-04,  1.14181275E-07,
                      -1.21471653E-11,  3.85790025E-16, -7.08100885E+01,
                      -9.09527530E-01])))

species(name='H*(10)',
        atoms='H:1 X:1',
        thermo=(NASA([100.00, 952.91],
                     [-3.80965452E-01,  5.47228709E-03,  2.60912778E-06,
                      -9.64961980E-09,  4.63946753E-12, -1.40561079E+03,
                       1.01725550E+00]),
                NASA([952.91, 5000.00],
                     [ 2.80339655E+00, -5.41047017E-04,  4.99507978E-07,
                      -7.54963647E-11,  3.06772366E-15, -2.34636021E+03,
                      -1.59436787E+01])))

species(name='O*(11)',
        atoms='O:1 X:1',
        thermo=(NASA([100.00, 888.26],
                     [-7.59007329E-01,  1.89867771E-02, -3.82470955E-05,
                       3.43554391E-08, -1.13972478E-11, -2.18355758E+04,
                       1.76015370E+00]),
                NASA([888.26, 5000.00],
                     [ 1.89892178E+00,  2.03297975E-03, -1.19978087E-06,
                       2.32684304E-10, -1.53511352E-14, -2.21111158E+04,
                      -9.64096026E+00])))

species(name='OH*(12)',
        atoms='H:1 O:1 X:1',
        thermo=(NASA([100.00, 914.58],
                     [-1.29513706E+00,  3.36476246E-02, -7.07717851E-05,
                       6.54315116E-08, -2.19410183E-11, -2.16453744E+04,
                       4.37624874E+00]),
                NASA([914.58, 5000.00],
                     [ 2.43515780E+00,  4.64644986E-03, -2.40014139E-06,
                       4.26415498E-10, -2.60661215E-14, -2.17971243E+04,
                      -1.03865094E+01])))

species(name='H2O*(13)',
        atoms='H:2 O:1 X:1',
        thermo=(NASA([100.00, 912.85],
                     [-1.34340138E+00,  3.66695539E-02, -7.99480721E-05,
                       7.74125241E-08, -2.68665364E-11, -3.23490305E+04,
                       1.10237667E+01]),
                NASA([912.85, 5000.00],
                     [ 1.12158920E+00,  8.16639256E-03, -4.02358034E-06,
                       7.20420773E-10, -4.51442235E-14, -3.20615235E+04,
                       3.39615620E+00])))

species(name='CO*(14)',
        atoms='C:1 O:1 X:1',
        thermo=(NASA([100.00, 891.33],
                     [-1.38214670E+00,  3.75306103E-02, -8.29761135E-05,
                       8.09705358E-08, -2.85472623E-11, -2.25369973E+04,
                       4.35449609E+00]),
                NASA([891.33, 5000.00],
                     [ 1.38092053E+00,  8.05716548E-03, -4.64307501E-06,
                       8.91167184E-10, -5.90045403E-14, -2.23513288E+04,
                      -4.85325804E+00])))

species(name='CO2*(15)',
        atoms='C:1 O:2 X:1',
        thermo=(NASA([100.00, 953.60],
                     [ 3.09268416E+00,  5.29285051E-03,  8.99424169E-06,
                      -1.67126189E-08,  7.04895731E-12, -4.52128351E+04,
                      -5.10054525E+00]),
                NASA([953.60, 5000.00],
                     [ 5.99804988E+00,  2.27482238E-03, -6.81075329E-07,
                       1.34428306E-10, -1.11506248E-14, -4.61838333E+04,
                      -2.11650815E+01])))

species(name='HCO*(16)',
        atoms='C:1 H:1 O:1 X:1',
        thermo=(NASA([100.00, 873.22],
                     [-1.43679537E+00,  3.69243480E-02, -7.17904167E-05,
                       6.73532499E-08, -2.35178167E-11, -2.16948351E+04,
                       8.27561789E+00]),
                NASA([873.22, 5000.00],
                     [ 1.83280181E+00,  1.00778749E-02, -5.28533237E-06,
                       1.01351974E-09, -6.85184058E-14, -2.18133254E+04,
                      -4.46392059E+00])))

species(name='HCOO*(17)',
        atoms='C:1 H:1 O:2 X:1',
        thermo=(NASA([100.00, 956.09],
                     [ 3.40105120E+00,  8.17066980E-03,  1.08107737E-05,
                      -2.16698753E-08,  9.26697424E-12, -3.42532449E+04,
                      -8.40035312E+00]),
                NASA([956.09, 5000.00],
                     [ 7.56067772E+00,  3.23174228E-03, -9.94984934E-07,
                       1.97189961E-10, -1.62207113E-14, -3.56182951E+04,
                      -3.12604645E+01])))

species(name='COOH*(18)',
        atoms='C:1 H:1 O:2 X:1',
        thermo=(NASA([100.00, 943.40],
                     [ 3.72340236E+00, -4.27932838E-03,  5.09064157E-05,
                      -6.55312082E-08,  2.52469411E-11, -4.42463163E+04,
                      -7.82080376E+00]),
                NASA([943.40, 5000.00],
                     [ 8.73074431E+00,  9.99296790E-04,  3.63420911E-07,
                      -2.85465672E-11, -4.35216598E-15, -4.63707920E+04,
                      -3.79389019E+01])))

species(name='CH2O*(19)',
        atoms='C:1 H:2 O:1 X:1',
        thermo=(NASA([100.00, 879.32],
                     [-1.46696967E+00,  4.13871743E-02, -8.87616535E-05,
                       9.10110992E-08, -3.36607081E-11, -2.03002411E+04,
                       1.57178332E+01]),
                NASA([879.32, 5000.00],
                     [-8.92927768E-01,  1.66196503E-02, -8.71596166E-06,
                       1.66816675E-09, -1.12503958E-13, -1.95446346E+04,
                       1.78928299E+01])))

species(name='CH3O*(20)',
        atoms='C:1 H:3 O:1 X:1',
        thermo=(NASA([100.00, 857.67],
                     [-1.68419050E+00,  4.28019546E-02, -7.50767196E-05,
                       7.03658026E-08, -2.50908186E-11, -2.23136964E+04,
                       7.76412161E+00]),
                NASA([857.67, 5000.00],
                     [ 1.14786899E+00,  1.71346045E-02, -8.39649029E-06,
                       1.59810518E-09, -1.08977854E-13, -2.23412385E+04,
                      -2.79262277E+00])))

species(name='CH3O2*(21)',
        atoms='C:1 H:3 O:2 X:1',
        thermo=(NASA([100.00, 932.26],
                     [ 3.21916271E+00,  6.71721821E-03,  3.72271942E-05,
                      -5.73634070E-08,  2.36261155E-11, -3.94342256E+04,
                      -6.14518402E+00]),
                NASA([932.26, 5000.00],
                     [ 1.03102378E+01,  3.04296758E-03,  9.70761635E-08,
                      -3.19266012E-11, -2.13473240E-15, -4.19188581E+04,
                      -4.60928875E+01])))

species(name='CH3OH*(22)',
        atoms='C:1 H:4 O:1 X:1',
        thermo=(NASA([100.00, 850.41],
                     [-1.64009981E+00,  4.09976611E-02, -6.66166227E-05,
                       6.12112419E-08, -2.17734200E-11, -3.05087359E+04,
                       1.38245399E+01]),
                NASA([850.41, 5000.00],
                     [ 1.01837261E+00,  1.82966199E-02, -8.58976461E-06,
                       1.62231337E-09, -1.10732500E-13, -3.05921894E+04,
                       3.59753323E+00])))

species(name='CH3OX(46)',
        atoms='C:1 H:3 O:1 X:1',
        thermo=(NASA([100.00, 813.94],
                     [-1.68232083E+00,  3.97249389E-02, -5.96107529E-05,
                       4.86920970E-08, -1.58049204E-11, -2.91607679E+04,
                       8.26687835E+00]),
                NASA([813.94, 5000.00],
                     [ 3.25579221E+00,  1.30434803E-02, -5.99158702E-06,
                       1.13138422E-09, -7.77149614E-14, -2.98846770E+04,
                      -1.40488937E+01])))

species(name='CH3O2X(49)',
        atoms='C:1 H:3 O:2 X:1',
        thermo=(NASA([100.00, 746.21],