units(length='cm', time='s', quantity='mol', act_energy='kcal/mol')

ideal_gas(name='gas',
          elements="H D T C Ci O Oi N Ne Ar He Si S F Cl Br I X",
          species="""N2          Ne          H2(2)       CO(3)
                     CO2(4)      H2O(5)      CH2O(6)     HCOOH(7)
                     CH3OH(8)    HCOOCH3(9)""",
          reactions='gas-*',
          transport='Mix',
          initial_state=state(temperature=300.0, pressure=OneAtm))

ideal_interface(name='surface1',
                elements="H D T C Ci O Oi N Ne Ar He Si S F Cl Br I X",
                species="""X(1)        H*(10)      O*(11)      OH*(12)
                          H2O*(13)    CO*(14)     CO2*(15)    HCO*(16)
                          HCOO*(17)   COOH*(18)   HCOOH*(19)  CH2O*(20)
                          CH3O*(21)   CH3O2*(22)  CH3OH*(23)  H2X(51)
                          CO2XX(52)   CH2OX2(53)  COXX(60)    CHOX2(61)""",
                site_density=2.943e-09,
                phases="gas",
          reactions='surface1-*',
                initial_state=state(temperature=300.0, pressure=OneAtm))

#-------------------------------------------------------------------------------
# Element data
#-------------------------------------------------------------------------------

element(symbol='Ci', atomic_mass=13.003)
element(symbol='D', atomic_mass=2.014)
element(symbol='Oi', atomic_mass=18.0)
element(symbol='T', atomic_mass=3.016)
element(symbol='X', atomic_mass=195.083)
#-------------------------------------------------------------------------------
# Species data
#-------------------------------------------------------------------------------

species(name='N2',
        atoms='N:2',
        thermo=(NASA([200.00, 1000.00],
                     [ 3.53101000E+00, -1.23661000E-04, -5.02999000E-07,
                       2.43531000E-09, -1.40881000E-12, -1.04698000E+03,
                       2.96747000E+00]),
                NASA([1000.00, 6000.00],
                     [ 2.95258000E+00,  1.39690000E-03, -4.92632000E-07,
                       7.86010000E-11, -4.60755000E-15, -9.23949000E+02,
                       5.87189000E+00])),
        transport=gas_transport(geom='linear',
                                diam=3.621,
                                well_depth=97.53,
                                polar=1.76,
                                rot_relax=4.0))

species(name='Ne',
        atoms='Ne:1',
        thermo=(NASA([200.00, 1000.00],
                     [ 2.50000000E+00,  0.00000000E+00,  0.00000000E+00,
                       0.00000000E+00,  0.00000000E+00, -7.45375000E+02,
                       3.35532000E+00]),
                NASA([1000.00, 6000.00],
                     [ 2.50000000E+00,  0.00000000E+00,  0.00000000E+00,
                       0.00000000E+00,  0.00000000E+00, -7.45375000E+02,
                       3.35532000E+00])),
        transport=gas_transport(geom='atom',
                                diam=3.758,
                                well_depth=148.6))

species(name='H2(2)',
        atoms='H:2',
        thermo=(NASA([100.00, 1959.08],
                     [ 3.43536412E+00,  2.12710353E-04, -2.78625043E-07,
                       3.40267167E-10, -7.76031998E-14, -1.03135984E+03,
                      -3.90841732E+00]),
                NASA([1959.08, 5000.00],
                     [ 2.78816583E+00,  5.87640942E-04,  1.59010417E-07,
                      -5.52739026E-11,  4.34310984E-15, -5.96144270E+02,
                       1.12732655E-01])),
        transport=gas_transport(geom='linear',
                                diam=2.833,
                                well_depth=59.7))

species(name='CO(3)',
        atoms='C:1 O:1',
        thermo=(NASA([100.00, 1571.63],
                     [ 3.56838038E+00, -8.52129500E-04,  2.48918819E-06,
                      -1.56331996E-09,  3.13598127E-13, -1.42842550E+04,
                       3.57912028E+00]),
                NASA([1571.63, 5000.00],
                     [ 2.91305202E+00,  1.64659937E-03, -6.88625686E-07,
                       1.21039677E-10, -7.84035796E-15, -1.41808768E+04,
                       6.71054299E+00])),
        transport=gas_transport(geom='linear',
                                diam=3.69,
                                well_depth=91.7,
                                polar=1.76,
                                rot_relax=4.0))

species(name='CO2(4)',
        atoms='C:1 O:2',
        thermo=(NASA([100.00, 978.21],
                     [ 3.28084634E+00,  2.50183460E-03,  8.08199998E-06,
                      -1.20511416E-08,  4.66547255E-12, -4.84008304E+04,
                       6.00080795E+00]),
                NASA([978.21, 5000.00],
                     [ 4.67426743E+00,  2.60964031E-03, -9.85689857E-07,
                       1.95713857E-10, -1.49836245E-14, -4.89512140E+04,
                      -2.11073617E+00])),
        transport=gas_transport(geom='linear',
                                diam=3.941,
                                well_depth=195.201))

species(name='H2O(5)',
        atoms='H:2 O:1',
        thermo=(NASA([100.00, 1130.24],
                     [ 4.05763610E+00, -7.87938871E-04,  2.90878480E-06,
                      -1.47520039E-09,  2.12847506E-13, -3.02815866E+04,
                      -3.11365027E-01]),
                NASA([1130.24, 5000.00],
                     [ 2.84324866E+00,  2.75108838E-03, -7.81033120E-07,
                       1.07244016E-10, -5.79395308E-15, -2.99586120E+04,
                       5.91043011E+00])),
        transport=gas_transport(geom='nonlinear',
                                diam=2.641,
                                well_depth=809.102,
                                polar=1.76,
                                rot_relax=4.0))

species(name='CH2O(6)',
        atoms='C:1 H:2 O:1',
        thermo=(NASA([100.00, 1070.44],
                     [ 4.12927802E+00, -4.08401318E-03,  2.03229341E-05,
                      -1.83524244E-08,  5.37975522E-12, -1.44294640E+04,
                       3.22418463E+00]),
                NASA([1070.44, 5000.00],
                     [ 2.21172442E+00,  7.94265679E-03, -3.34193053E-06,
                       6.28471401E-10, -4.40431446E-14, -1.42974456E+04,
                       1.13048985E+01])),
        transport=gas_transport(geom='nonlinear',
                                diam=3.59,
                                well_depth=498.002,
                                rot_relax=2.0))

species(name='HCOOH(7)',
        atoms='C:1 H:2 O:2',
        thermo=(NASA([100.00, 993.73],
                     [ 3.76241335E+00, -9.43947850E-04,  3.38781957E-05,
                      -4.04987780E-08,  1.43988412E-11, -4.68212105E+04,
                       7.63273333E+00]),
                NASA([993.73, 5000.00],
                     [ 5.64497050E+00,  7.55187503E-03, -3.20854541E-06,
                       6.58926362E-10, -5.05061286E-14, -4.79889887E+04,
                      -5.43086107E+00])),
        transport=gas_transport(geom='nonlinear',
                                diam=3.626,
                                well_depth=481.8,
                                dipole=1.7,
                                rot_relax=1.0))

species(name='CH3OH(8)',
        atoms='C:1 H:4 O:1',
        thermo=(NASA([100.00, 1035.75],
                     [ 3.84006214E+00,  1.38241998E-03,  1.91667191E-05,
                      -2.01568660E-08,  6.39102259E-12, -2.56083087E+04,
                       5.90978137E+00]),
                NASA([1035.75, 5000.00],
                     [ 2.79184298E+00,  1.15827852E-02, -4.51551928E-06,
                       8.21206706E-10, -5.67063250E-14, -2.57211674E+04,
                       9.41061586E+00])),
        transport=gas_transport(geom='nonlinear',
                                diam=3.626,
                                well_depth=481.802,
                                rot_relax=1.0))

species(name='HCOOCH3(9)',
        atoms='C:2 H:4 O:2',
        thermo=(NASA([100.00, 1141.77],
                     [ 3.28123251E+00,  1.13180591E-02,  1.84477587E-05,
                      -2.41945197E-08,  7.75136395E-12, -4.46725565E+04,
                       1.20363735E+01]),
                NASA([1141.77, 5000.00],
                     [ 4.90989100E+00,  1.87529727E-02, -8.58328635E-06,
                       1.66847339E-09, -1.18612079E-13, -4.59010044E+04,
                       2.12202036E-01])),
        transport=gas_transport(geom='nonlinear',
                                diam=5.234,
                                well_depth=377.356))

species(name='X(1)',
        atoms='X:1',
        thermo=(NASA([100.00, 1554.80],
                     [ 7.10139498E-03, -4.25619522E-05,  8.98533016E-08,
                      -7.80193649E-11,  2.32465471E-14, -8.76101712E-01,
                      -3.11211229E-02]),
                NASA([1554.80, 5000.00],
                     [ 1.60299900E-01, -2.52235409E-04,  1.14181275E-07,
                      -1.21471653E-11,  3.85790025E-16, -7.08100885E+01,
                      -9.09527530E-01])))

species(name='H*(10)',
        atoms='H:1 X:1',
        thermo=(NASA([100.00, 952.91],
                     [-3.80965452E-01,  5.47228709E-03,  2.60912778E-06,
                      -9.64961980E-09,  4.63946753E-12, -1.40559768E+03,
                       1.01725550E+00]),
                NASA([952.91, 5000.00],
                     [ 2.80339655E+00, -5.41047017E-04,  4.99507978E-07,
                      -7.54963647E-11,  3.06772366E-15, -2.34634710E+03,
                      -1.59436787E+01])))

species(name='O*(11)',
        atoms='O:1 X:1',
        thermo=(NASA([100.00, 888.26],
                     [-7.59007329E-01,  1.89867771E-02, -3.82470955E-05,
                       3.43554391E-08, -1.13972478E-11, -2.18355966E+04,
                       1.76015370E+00]),
                NASA([888.26, 5000.00],
                     [ 1.89892178E+00,  2.03297975E-03, -1.19978087E-06,
                       2.32684304E-10, -1.53511352E-14, -2.21111366E+04,
                      -9.64096026E+00])))

species(name='OH*(12)',
        atoms='H:1 O:1 X:1',
        thermo=(NASA([100.00, 914.58],
                     [-1.29513706E+00,  3.36476246E-02, -7.07717851E-05,
                       6.54315116E-08, -2.19410183E-11, -2.16453848E+04,
                       4.37624874E+00]),
                NASA([914.58, 5000.00],
                     [ 2.43515780E+00,  4.64644986E-03, -2.40014139E-06,
                       4.26415498E-10, -2.60661215E-14, -2.17971347E+04,
                      -1.03865094E+01])))

species(name='H2O*(13)',
        atoms='H:2 O:1 X:1',
        thermo=(NASA([100.00, 912.85],
                     [-1.34340138E+00,  3.66695539E-02, -7.99480721E-05,
                       7.74125241E-08, -2.68665364E-11, -3.23490305E+04,
                       1.10237667E+01]),
                NASA([912.85, 5000.00],
                     [ 1.12158920E+00,  8.16639256E-03, -4.02358034E-06,
                       7.20420773E-10, -4.51442235E-14, -3.20615235E+04,
                       3.39615620E+00])))

species(name='CO*(14)',
        atoms='C:1 O:1 X:1',
        thermo=(NASA([100.00, 891.33],
                     [-1.38214670E+00,  3.75306103E-02, -8.29761135E-05,
                       8.09705358E-08, -2.85472623E-11, -2.25369687E+04,
                       4.35449609E+00]),
                NASA([891.33, 5000.00],
                     [ 1.38092053E+00,  8.05716548E-03, -4.64307501E-06,
                       8.91167184E-10, -5.90045403E-14, -2.23513002E+04,
                      -4.85325804E+00])))

species(name='CO2*(15)',
        atoms='C:1 O:2 X:1',
        thermo=(NASA([100.00, 953.60],
                     [ 3.09268416E+00,  5.29285051E-03,  8.99424169E-06,
                      -1.67126189E-08,  7.04895731E-12, -4.52128351E+04,
                      -5.10054525E+00]),
                NASA([953.60, 5000.00],
                     [ 5.99804988E+00,  2.27482238E-03, -6.81075329E-07,
                       1.34428306E-10, -1.11506248E-14, -4.61838333E+04,
                      -2.11650815E+01])))

species(name='HCO*(16)',
        atoms='C:1 H:1 O:1 X:1',
        thermo=(NASA([100.00, 873.22],
                     [-1.43679537E+00,  3.69243480E-02, -7.17904167E-05,
                       6.73532499E-08, -2.35178167E-11, -2.16948208E+04,
                       8.27561789E+00]),
                NASA([873.22, 5000.00],
                     [ 1.83280181E+00,  1.00778749E-02, -5.28533237E-06,
                       1.01351974E-09, -6.85184058E-14, -2.18133111E+04,
                      -4.46392059E+00])))

species(name='HCOO*(17)',
        atoms='C:1 H:1 O:2 X:1',
        thermo=(NASA([100.00, 956.09],
                     [ 3.40105120E+00,  8.17066980E-03,  1.08107737E-05,
                      -2.16698753E-08,  9.26697424E-12, -3.65515684E+04,
                      -8.40035312E+00]),
                NASA([956.09, 5000.00],
                     [ 7.56067772E+00,  3.23174228E-03, -9.94984934E-07,
                       1.97189961E-10, -1.62207113E-14, -3.79166186E+04,
                      -3.12604645E+01])))

species(name='COOH*(18)',
        atoms='C:1 H:1 O:2 X:1',
        thermo=(NASA([100.00, 943.40],
                     [ 3.72340236E+00, -4.27932838E-03,  5.09064157E-05,
                      -6.55312082E-08,  2.52469411E-11, -3.82559992E+04,
                      -7.82080376E+00]),
                NASA([943.40, 5000.00],
                     [ 8.73074431E+00,  9.99296790E-04,  3.63420911E-07,
                      -2.85465672E-11, -4.35216598E-15, -4.03804749E+04,
                      -3.79389019E+01])))

species(name='HCOOH*(19)',
        atoms='C:1 H:2 O:2 X:1',
        thermo=(NASA([100.00, 950.51],
                     [ 3.66942277E+00, -3.78107024E-03,  5.53417866E-05,
                      -7.04158319E-08,  2.67783312E-11, -4.98129453E+04,
                      -8.38223347E+00]),
                NASA([950.51, 5000.00],
                     [ 8.66767333E+00,  3.45619294E-03, -6.94093723E-07,
                       1.78231295E-10, -1.93189703E-14, -5.20402350E+04,
                      -3.89602390E+01])))

species(name='CH2O*(20)',
        atoms='C:1 H:2 O:1 X:1',
        thermo=(NASA([100.00, 879.32],
                     [-1.46696967E+00,  4.13871743E-02, -8.87616535E-05,
                       9.10110992E-08, -3.36607081E-11, -2.03002411E+04,
                       1.57178332E+01]),
                NASA([879.32, 5000.00],
                     [-8.92927768E-01,  1.66196503E-02, -8.71596166E-06,
                       1.66816675E-09, -1.12503958E-13, -1.95446346E+04,
                       1.78928299E+01])))

species(name='CH3O*(21)',
        atoms='C:1 H:3 O:1 X:1',
        thermo=(NASA([100.00, 857.67],
                     [-1.68419050E+00,  4.28019546E-02, -7.50767196E-05,
                       7.03658026E-08, -2.50908186E-11, -2.23137068E+04,
                       7.76412161E+00]),
                NASA([857.67, 5000.00],
                     [ 1.14786899E+00,  1.71346045E-02, -8.39649029E-06,
                       1.59810518E-09, -1.08977854E-13, -2.23412489E+04,
                      -2.79262277E+00])))

species(name='CH3O2*(22)',
        atoms='C:1 H:3 O:2 X:1',
        thermo=(NASA([100.00, 932.26],
                     [ 3.21918908E+00,  6.71689180E-03,  3.72284082E-05,
                      -5.73650855E-08,  2.36268783E-11, -4.17325502E+04,
                      -6.14527758E+00]),
                NASA([932.26, 5000.00],
                     [ 1.03101570E+01,  3.04310808E-03,  9.69938157E-08,
                      -3.19069193E-11, -2.13637926E-15, -4.42171487E+04,
                      -4.60924347E+01])))

species(name='CH3OH*(23)',
        atoms='C:1 H:4 O:1 X:1',
        thermo=(NASA([100.00, 850.41],
                     [-1.64009981E+00,  4.09976611E-02, -6.66166227E-05,
                       6.12112419E-08, -2.17734200E-11, -3.05087359E+04,
                       1.38245399E+01]),
                NASA([850.41, 5000.00],
                     [ 1.01837261E+00,  1.82966199E-02, -8.58976461E-06,
                       1.62231337E-09, -1.10732500E-13, -3.05921894E+04,
                       3.59753323E+00])))

species(name='H2X(51)',
        atoms='H:2 X:1',
        thermo=(NASA([100.00, 911.33],
                     [-1.27856724E+00,  3.68010102E-02, -8.90296992E-05,
                       8.91132730E-08, -3.14511582E-11, -1.33397682E+03,
                       1.13160562E+01]),
                NASA([911.33, 5000.00],
                     [ 6.45631937E-01,  6.69563800E-03, -3.82690860E-06,
                       7.04725296E-10, -4.41024465E-14, -7.85256799E+02,
                       7.14633349E+00])))

species(name='CO2XX(52)',
        atoms='C:1 O:2 X:2',
        thermo=(NASA([100.00, 924.23],
                     [ 3.12758069E+00, -5.98581586E-04,  3.64330738E-05,
                      -5.17473806E-08,  2.10843705E-11, -6.15075251E+04,
                      -1.62509607E+01]),
                NASA([924.23, 5000.00],
                     [ 8.66361110E+00, -1.93863890E-03,  1.89733836E-06,
                      -3.56013731E-10,  2.05539006E-14, -6.34969221E+04,
                      -4.77493127E+01])),
        size=2.0)

species(name='CH2OX2(53)',
        atoms='C:1 H:2 O:1 X:2',
        thermo=(NASA([100.00, 777.56],
                     [-1.44645549E+00,  3.42803139E-02, -5.09483795E-05,
                       4.03732306E-08, -1.27356452E-11, -1.75584748E+04,
                       6.09156343E+00]),
                NASA([777.56, 5000.00],
                     [ 3.18259452E+00,  1.04657053E-02, -5.00464545E-06,
                       9.79545329E-10, -6.90993489E-14, -1.82783054E+04,
                      -1.50760119E+01])),
        size=2.0)

species(name='COXX(60)',
        atoms='C:1 O:1 X:2',
        thermo=(NASA([100.00, 909.37],
                     [ 3.38594826E+00, -3.61037683E-03,  2.96549615E-05,
                      -3.97466056E-08,  1.61030274E-11, -1.54090480E+04,
                      -1.85679259E+01]),
                NASA([909.37, 5000.00],
                     [ 6.79120510E+00, -2.75483161E-03,  2.12546773E-06,
                      -4.16930504E-10,  2.67049548E-14, -1.66830764E+04,
                      -3.82725652E+01])),
        size=2.0)

species(name='CHOX2(61)',
        atoms='C:1 H:1 O:1 X:2',
        thermo=(NASA([100.00, 689.33],
                     [-1.32716780E+00,  3.17587333E-02, -5.05065871E-05,
                       3.95520303E-08, -1.17505741E-11, -1.46027549E+04,
                       3.92679635E+00]),
                NASA([689.33, 5000.00],
                     [ 3.47343833E+00,  7.03348332E-03, -3.51779073E-06,
                       6.98047945E-10, -4.93382204E-14, -1.53389937E+04,
                      -1.79870016E+01])),
        size=2.0)

#-------------------------------------------------------------------------------
# Reaction data
#-------------------------------------------------------------------------------
#  Reaction index: Chemkin #1; RMG #39
#  Template reaction: 1,2_Insertion_CO
#  Flux pairs: CO(3), CH2O(6); H2(2), CH2O(6);
#  Matched reaction 2 H2 + CO <=> CH2O in 1,2_Insertion_CO/training
#  This reaction matched rate rule [CO;H2]
#  family: 1,2_Insertion_CO

# Reaction 1
reaction('H2(2) + CO(3) <=> CH2O(6)', [2.890000e+09, 1.16, 82.1],
         id='gas-1')
#  Reaction index: Chemkin #2; RMG #41
#  Template reaction: 1,2_Insertion_CO
#  Flux pairs: CO(3), HCOOH(7); H2O(5), HCOOH(7);
#  Estimated using an average for rate rule [CO;RO_H]
#  Euclidian distance = 0
#  Multiplied by reaction path degeneracy 2.0
#  family: 1,2_Insertion_CO

# Reaction 2
reaction('H2O(5) + CO(3) <=> HCOOH(7)', [2.540000e-01, 3.7, 53.36],
         id='gas-2')
#  Reaction index: Chemkin #3; RMG #42
#  Template reaction: 1,3_Insertion_CO2
#  Flux pairs: CO2(4), HCOOH(7); H2(2), HCOOH(7);
#  Matched reaction 1 H2 + CO2 <=> CH2O2 in 1,3_Insertion_CO2/training
#  This reaction matched rate rule [CO2_Od;H2]
#  family: 1,3_Insertion_CO2

# Reaction 3
reaction('H2(2) + CO2(4) <=> HCOOH(7)', [1.510000e+09, 1.23, 73.9],
         id='gas-3',
         options='duplicate')
#  Reaction index: Chemkin #4; RMG #51
#  Template reaction: 1,2_Insertion_CO
#  Flux pairs: CO(3), HCOOCH3(9); CH3OH(8), HCOOCH3(9);
#  Matched reaction 7 CH4O + CO <=> C2H4O2 in 1,2_Insertion_CO/training
#  This reaction matched rate rule [CO;CsO_H]
#  family: 1,2_Insertion_CO

# Reaction 4
reaction('CO(3) + CH3OH(8) <=> HCOOCH3(9)', [1.270000e-01, 3.7, 53.36],
         id='gas-4')
#  Reaction index: Chemkin #5; RMG #134
#  Template reaction: 1,3_Insertion_CO2
#  Flux pairs: H2(2), HCOOH(7); CO2(4), HCOOH(7);
#  Matched reaction 1 H2 + CO2 <=> CH2O2 in 1,3_Insertion_CO2/training
#  This reaction matched rate rule [CO2_Od;H2]
#  family: 1,3_Insertion_CO2

# Reaction 5
reaction('H2(2) + CO2(4) <=> HCOOH(7)', [1.510000e+09, 1.23, 73.9],
         id='gas-5',
         options='duplicate')
#  Reaction index: Chemkin #6; RMG #135
#  Template reaction: 1,3_Insertion_CO2
#  Flux pairs: H2(2), HCOOH(7); CO2(4), HCOOH(7);
#  Matched reaction 1 H2 + CO2 <=> CH2O2 in 1,3_Insertion_CO2/training
#  This reaction matched rate rule [CO2_Cdd;H2]
#  family: 1,3_Insertion_CO2

# Reaction 6
reaction('H2(2) + CO2(4) <=> HCOOH(7)', [1.510000e+09, 1.23, 73.9],
         id='gas-6',
         options='duplicate')
#  Reaction index: Chemkin #1; RMG #31
#  Library reaction: Surface/Deutschmann_Ni
#  Flux pairs: H2(2), H*(10); X(1), H*(10); X(1), H*(10);

# surface1 Reaction 1
surface_reaction('X(1) + X(1) + H2(2) <=> H*(10) + H*(10)', stick(3.200000e-02, 0.0, 0.0),
                 id='surface1-1')
#  Reaction index: Chemkin #2; RMG #33
#  Library reaction: Surface/Deutschmann_Ni
#  Flux pairs: X(1), CO*(14); CO(3), CO*(14);

# surface1 Reaction 2
surface_reaction('X(1) + CO(3) <=> CO*(14)', stick(5.000000e-01, 0.0, 0.0),
                 id='surface1-2')
#  Reaction index: Chemkin #3; RMG #38
#  Library reaction: Surface/Deutschmann_Ni
#  Flux pairs: HCO*(16), COOH*(18); OH*(12), H*(10);

# surface1 Reaction 3
surface_reaction('OH*(12) + HCO*(16) <=> H*(10) + COOH*(18)', [2.280000e+20, 0.263, 3.8],
                 id='surface1-3')
#  Reaction index: Chemkin #4; RMG #62
#  Template reaction: Surface_Adsorption_vdW
#  Flux pairs: H2O(5), H2O*(13); X(1), H2O*(13);
#  Matched reaction 5 H2O + X <=> H2OX in Surface_Adsorption_vdW/training
#  This reaction matched rate rule [H2O;VacantSite]
#  family: Surface_Adsorption_vdW
#  metal: None

# surface1 Reaction 4
surface_reaction('X(1) + H2O(5) <=> H2O*(13)', stick(1.000000e-01, 0.0, 0.0),
                 id='surface1-4')
#  Reaction index: Chemkin #5; RMG #63
#  Template reaction: Surface_Adsorption_vdW
#  Flux pairs: CO2(4), CO2*(15); X(1), CO2*(15);
#  Matched reaction 7 CO2 + X <=> CO2X in Surface_Adsorption_vdW/training
#  This reaction matched rate rule [Adsorbate;VacantSite]
#  family: Surface_Adsorption_vdW
#  metal: None
#  Ea raised from 0.0 to 26.4 kJ/mol to match endothermicity of reaction.

# surface1 Reaction 5
surface_reaction('X(1) + CO2(4) <=> CO2*(15)', stick(7.000000e-06, 0.0, 6.32),
                 id='surface1-5')
#  Reaction index: Chemkin #6; RMG #66
#  Template reaction: Surface_EleyRideal_Addition_Multiple_Bond
#  Flux pairs: H*(10), HCOO*(17); CO2(4), HCOO*(17);
#  Estimated using template [Adsorbate1;R=R] for rate rule [*H;R=R]
#  Euclidian distance = 1.0
#  Multiplied by reaction path degeneracy 2.0
#  family: Surface_EleyRideal_Addition_Multiple_Bond

# surface1 Reaction 6
surface_reaction('H*(10) + CO2(4) <=> HCOO*(17)', stick(1.000000e-01, 0.0, 26.656),
                 id='surface1-6')
#  Reaction index: Chemkin #7; RMG #67
#  Template reaction: Surface_Migration
#  Flux pairs: HCOO*(17), COOH*(18);
#  Estimated using an average for rate rule [Adsorbate1]
#  Euclidian distance = 0
#  family: Surface_Migration

# surface1 Reaction 7
surface_reaction('HCOO*(17) <=> COOH*(18)', [1.112889e+12, 0.0, 14.465],
                 id='surface1-7')
#  Reaction index: Chemkin #8; RMG #69
#  Template reaction: Surface_EleyRideal_Addition_Multiple_Bond
#  Flux pairs: H*(10), COOH*(18); CO2(4), COOH*(18);
#  Estimated using template [Adsorbate1;R=R] for rate rule [*H;R=R]
#  Euclidian distance = 1.0
#  Multiplied by reaction path degeneracy 2.0
#  family: Surface_EleyRideal_Addition_Multiple_Bond
#  Ea raised from 95.8 to 96.1 kJ/mol to match endothermicity of reaction.

# surface1 Reaction 8
surface_reaction('H*(10) + CO2(4) <=> COOH*(18)', stick(1.000000e-01, 0.0, 22.967),
                 id='surface1-8')
#  Reaction index: Chemkin #9; RMG #70
#  Template reaction: Surface_Adsorption_vdW
#  Flux pairs: HCOOH(7), HCOOH*(19); X(1), HCOOH*(19);
#  Exact match found for rate rule [Adsorbate;VacantSite]
#  Euclidian distance = 0
#  family: Surface_Adsorption_vdW

# surface1 Reaction 9
surface_reaction('X(1) + HCOOH(7) <=> HCOOH*(19)', stick(1.000000e-12, 0.0, 0.0),
                 id='surface1-9')
#  Reaction index: Chemkin #10; RMG #71
#  Template reaction: Surface_Adsorption_vdW
#  Flux pairs: CH2O(6), CH2O*(20); X(1), CH2O*(20);
#  Exact match found for rate rule [Adsorbate;VacantSite]
#  Euclidian distance = 0
#  family: Surface_Adsorption_vdW

# surface1 Reaction 10
surface_reaction('X(1) + CH2O(6) <=> CH2O*(20)', stick(1.000000e-12, 0.0, 0.0),
                 id='surface1-10')
#  Reaction index: Chemkin #11; RMG #73
#  Template reaction: Surface_EleyRideal_Addition_Multiple_Bond
#  Flux pairs: H*(10), CH3O*(21); CH2O(6), CH3O*(21);
#  Estimated using template [Adsorbate1;R=R] for rate rule [*H;R=R]
#  Euclidian distance = 1.0
#  family: Surface_EleyRideal_Addition_Multiple_Bond

# surface1 Reaction 11
surface_reaction('H*(10) + CH2O(6) <=> CH3O*(21)', stick(5.000000e-02, 0.0, 17.462),
                 id='surface1-11')
#  Reaction index: Chemkin #12; RMG #76
#  Template reaction: Surface_EleyRideal_Addition_Multiple_Bond
#  Flux pairs: OH*(12), CH3O2*(22); CH2O(6), CH3O2*(22);
#  Estimated using an average for rate rule [Adsorbate1;R=R]
#  Euclidian distance = 0
#  family: Surface_EleyRideal_Addition_Multiple_Bond

# surface1 Reaction 12
surface_reaction('OH*(12) + CH2O(6) <=> CH3O2*(22)', stick(5.000000e-02, 0.0, 17.462),
                 id='surface1-12')
#  Reaction index: Chemkin #13; RMG #77
#  Template reaction: Surface_EleyRideal_Addition_Multiple_Bond
#  Flux pairs: H*(10), CH3O2*(22); HCOOH(7), CH3O2*(22);
#  Estimated using template [Adsorbate1;R=R] for rate rule [*H;R=R]
#  Euclidian distance = 1.0
#  family: Surface_EleyRideal_Addition_Multiple_Bond

# surface1 Reaction 13
surface_reaction('H*(10) + HCOOH(7) <=> CH3O2*(22)', stick(5.000000e-02, 0.0, 17.462),
                 id='surface1-13')
#  Reaction index: Chemkin #14; RMG #80
#  Template reaction: Surface_Adsorption_vdW
#  Flux pairs: CH3OH(8), CH3OH*(23); X(1), CH3OH*(23);
#  Exact match found for rate rule [Adsorbate;VacantSite]
#  Euclidian distance = 0
#  family: Surface_Adsorption_vdW

# surface1 Reaction 14
surface_reaction('X(1) + CH3OH(8) <=> CH3OH*(23)', stick(1.000000e-12, 0.0, 0.0),
                 id='surface1-14')
#  Reaction index: Chemkin #15; RMG #83
#  Template reaction: Surface_Adsorption_Dissociative
#  Flux pairs: H2O(5), OH*(12); H2O(5), H*(10);
#  Estimated using template [Adsorbate;VacantSite1;VacantSite2] for rate rule [H2O;VacantSite1;VacantSite2]
#  Euclidian distance = 3.0
#  Multiplied by reaction path degeneracy 2.0
#  family: Surface_Adsorption_Dissociative
#  Ea raised from 0.0 to 59.6 kJ/mol to match endothermicity of reaction.

# surface1 Reaction 15
surface_reaction('X(1) + X(1) + H2O(5) <=> H*(10) + OH*(12)', stick(3.200000e-02, 0.0, 14.25),
                 id='surface1-15')
#  Reaction index: Chemkin #16; RMG #85
#  Template reaction: Surface_Adsorption_Dissociative
#  Flux pairs: CH2O(6), HCO*(16); CH2O(6), H*(10);
#  Estimated using template [Adsorbate;VacantSite1;VacantSite2] for rate rule [C-H;VacantSite1;VacantSite2]
#  Euclidian distance = 1.0
#  Multiplied by reaction path degeneracy 2.0
#  family: Surface_Adsorption_Dissociative

# surface1 Reaction 16
surface_reaction('X(1) + X(1) + CH2O(6) <=> H*(10) + HCO*(16)', stick(3.200000e-02, 0.0, 0.0),
                 id='surface1-16')
#  Reaction index: Chemkin #17; RMG #87
#  Template reaction: Surface_Adsorption_Dissociative
#  Flux pairs: HCOOH(7), OH*(12); HCOOH(7), HCO*(16);
#  Estimated using template [Adsorbate;VacantSite1;VacantSite2] for rate rule [O-C;VacantSite1;VacantSite2]
#  Euclidian distance = 2.0
#  family: Surface_Adsorption_Dissociative
#  Ea raised from 0.0 to 28.3 kJ/mol to match endothermicity of reaction.

# surface1 Reaction 17
surface_reaction('X(1) + X(1) + HCOOH(7) <=> OH*(12) + HCO*(16)', stick(1.600000e-02, 0.0, 6.772),
                 id='surface1-17')
#  Reaction index: Chemkin #18; RMG #88
#  Template reaction: Surface_Adsorption_Dissociative
#  Flux pairs: HCOOH(7), HCOO*(17); HCOOH(7), H*(10);
#  Estimated using template [Adsorbate;VacantSite1;VacantSite2] for rate rule [O-H;VacantSite1;VacantSite2]
#  Euclidian distance = 2.0
#  family: Surface_Adsorption_Dissociative
#  Ea raised from 0.0 to 73.5 kJ/mol to match endothermicity of reaction.

# surface1 Reaction 18
surface_reaction('X(1) + X(1) + HCOOH(7) <=> H*(10) + HCOO*(17)', stick(1.600000e-02, 0.0, 17.56),
                 id='surface1-18')
#  Reaction index: Chemkin #19; RMG #89
#  Template reaction: Surface_Adsorption_Dissociative
#  Flux pairs: HCOOH(7), COOH*(18); HCOOH(7), H*(10);
#  Estimated using template [Adsorbate;VacantSite1;VacantSite2] for rate rule [C-H;VacantSite1;VacantSite2]
#  Euclidian distance = 1.0
#  family: Surface_Adsorption_Dissociative
#  Ea raised from 0.0 to 59.4 kJ/mol to match endothermicity of reaction.

# surface1 Reaction 19
surface_reaction('X(1) + X(1) + HCOOH(7) <=> H*(10) + COOH*(18)', stick(1.600000e-02, 0.0, 14.186),
                 id='surface1-19')