units(length='cm', time='s', quantity='mol', act_energy='kcal/mol')

ideal_gas(name='gas',
          elements="H D T C Ci O Oi N Ne Ar He Si S F Cl Br I X",
          species="""N2          Ne          H2(2)       CO(3)
                     CO2(4)      H2O(5)      CH2O(6)     HCOOH(7)
                     CH3OH(8)    HCOOCH3(9)  CH4(41)     C2H4O2(70)
                     CH4O2(178)  COCO(369)   OCCO(371)   C2H4O(376)
                     C2H6O(381)  S(466)      OCCCO(968)  S(1118)
                     S(1135)""",
          reactions='gas-*',
          transport='Mix',
          initial_state=state(temperature=300.0, pressure=OneAtm))

ideal_interface(name='surface1',
                elements="H D T C Ci O Oi N Ne Ar He Si S F Cl Br I X",
                species="""X(1)        H*(10)      O*(11)      OH*(12)
                          H2O*(13)    CO*(14)     CO2*(15)    HCO*(16)
                          HCOO*(17)   COOH*(18)   CH2O*(19)   CH3O*(20)
                          CH3O2*(21)  CH3OH*(22)  CHX(32)     CH3OX(46)
                          H2X(50)     CO2X(51)    CH2OX2(52)  SX(53)
                          CH3X(55)    SX(56)      SX(57)      COX(60)
                          CHOX2(61)   CH2X(63)    SX(127)     CHOX(175)
                          CH2OX(176)  SX(197)     SX(222)     CH4X(383)
                          SX(406)     C2HOX(418)  SX(420)     SX(421)
                          SX(428)     SX(580)     SX(654)     SX(884)""",
                site_density=2.943e-09,
                phases="gas",
          reactions='surface1-*',
                initial_state=state(temperature=300.0, pressure=OneAtm))

#-------------------------------------------------------------------------------
# Element data
#-------------------------------------------------------------------------------

element(symbol='Ci', atomic_mass=13.003)
element(symbol='D', atomic_mass=2.014)
element(symbol='Oi', atomic_mass=18.0)
element(symbol='T', atomic_mass=3.016)
element(symbol='X', atomic_mass=195.083)
#-------------------------------------------------------------------------------
# Species data
#-------------------------------------------------------------------------------

species(name='N2',
        atoms='N:2',
        thermo=(NASA([200.00, 1000.00],
                     [ 3.53101000E+00, -1.23661000E-04, -5.02999000E-07,
                       2.43531000E-09, -1.40881000E-12, -1.04698000E+03,
                       2.96747000E+00]),
                NASA([1000.00, 6000.00],
                     [ 2.95258000E+00,  1.39690000E-03, -4.92632000E-07,
                       7.86010000E-11, -4.60755000E-15, -9.23949000E+02,
                       5.87189000E+00])),
        transport=gas_transport(geom='linear',
                                diam=3.621,
                                well_depth=97.53,
                                polar=1.76,
                                rot_relax=4.0))

species(name='Ne',
        atoms='Ne:1',
        thermo=(NASA([200.00, 1000.00],
                     [ 2.50000000E+00,  0.00000000E+00,  0.00000000E+00,
                       0.00000000E+00,  0.00000000E+00, -7.45375000E+02,
                       3.35532000E+00]),
                NASA([1000.00, 6000.00],
                     [ 2.50000000E+00,  0.00000000E+00,  0.00000000E+00,
                       0.00000000E+00,  0.00000000E+00, -7.45375000E+02,
                       3.35532000E+00])),
        transport=gas_transport(geom='atom',
                                diam=3.758,
                                well_depth=148.6))

species(name='H2(2)',
        atoms='H:2',
        thermo=(NASA([100.00, 1959.08],
                     [ 3.43536412E+00,  2.12710353E-04, -2.78625043E-07,
                       3.40267167E-10, -7.76031998E-14, -1.03135984E+03,
                      -3.90841732E+00]),
                NASA([1959.08, 5000.00],
                     [ 2.78816583E+00,  5.87640942E-04,  1.59010417E-07,
                      -5.52739026E-11,  4.34310984E-15, -5.96144270E+02,
                       1.12732655E-01])),
        transport=gas_transport(geom='linear',
                                diam=2.92,
                                well_depth=38.0,
                                polar=0.79,
                                rot_relax=280.0))

species(name='CO(3)',
        atoms='C:1 O:1',
        thermo=(NASA([100.00, 1571.63],
                     [ 3.56838038E+00, -8.52129500E-04,  2.48918819E-06,
                      -1.56331996E-09,  3.13598127E-13, -1.42842550E+04,
                       3.57912028E+00]),
                NASA([1571.63, 5000.00],
                     [ 2.91305202E+00,  1.64659937E-03, -6.88625686E-07,
                       1.21039677E-10, -7.84035796E-15, -1.41808768E+04,
                       6.71054299E+00])),
        transport=gas_transport(geom='linear',
                                diam=3.65,
                                well_depth=98.1,
                                polar=1.95,
                                rot_relax=1.8))

species(name='CO2(4)',
        atoms='C:1 O:2',
        thermo=(NASA([100.00, 978.21],
                     [ 3.28084634E+00,  2.50183460E-03,  8.08199998E-06,
                      -1.20511416E-08,  4.66547255E-12, -4.84008304E+04,
                       6.00080795E+00]),
                NASA([978.21, 5000.00],
                     [ 4.67426743E+00,  2.60964031E-03, -9.85689857E-07,
                       1.95713857E-10, -1.49836245E-14, -4.89512140E+04,
                      -2.11073617E+00])),
        transport=gas_transport(geom='linear',
                                diam=3.763,
                                well_depth=244.001,
                                polar=2.65,
                                rot_relax=2.1))

species(name='H2O(5)',
        atoms='H:2 O:1',
        thermo=(NASA([100.00, 1130.24],
                     [ 4.05763610E+00, -7.87938871E-04,  2.90878480E-06,
                      -1.47520039E-09,  2.12847506E-13, -3.02815866E+04,
                      -3.11365027E-01]),
                NASA([1130.24, 5000.00],
                     [ 2.84324866E+00,  2.75108838E-03, -7.81033120E-07,
                       1.07244016E-10, -5.79395308E-15, -2.99586120E+04,
                       5.91043011E+00])),
        transport=gas_transport(geom='nonlinear',
                                diam=2.605,
                                well_depth=572.402,
                                dipole=1.844,
                                rot_relax=4.0))

species(name='CH2O(6)',
        atoms='C:1 H:2 O:1',
        thermo=(NASA([100.00, 1070.44],
                     [ 4.12927802E+00, -4.08401318E-03,  2.03229341E-05,
                      -1.83524244E-08,  5.37975522E-12, -1.44294640E+04,
                       3.22418463E+00]),
                NASA([1070.44, 5000.00],
                     [ 2.21172442E+00,  7.94265679E-03, -3.34193053E-06,
                       6.28471401E-10, -4.40431446E-14, -1.42974456E+04,
                       1.13048985E+01])),
        transport=gas_transport(geom='nonlinear',
                                diam=3.59,
                                well_depth=498.002,
                                rot_relax=2.0))

species(name='HCOOH(7)',
        atoms='C:1 H:2 O:2',
        thermo=(NASA([100.00, 993.73],
                     [ 3.76241335E+00, -9.43947850E-04,  3.38781957E-05,
                      -4.04987780E-08,  1.43988412E-11, -4.68212105E+04,
                       7.63273333E+00]),
                NASA([993.73, 5000.00],
                     [ 5.64497050E+00,  7.55187503E-03, -3.20854541E-06,
                       6.58926362E-10, -5.05061286E-14, -4.79889887E+04,
                      -5.43086107E+00])),
        transport=gas_transport(geom='nonlinear',
                                diam=3.626,
                                well_depth=481.8,
                                dipole=1.7,
                                rot_relax=1.0))

species(name='CH3OH(8)',
        atoms='C:1 H:4 O:1',
        thermo=(NASA([100.00, 1035.75],
                     [ 3.84006214E+00,  1.38241998E-03,  1.91667191E-05,
                      -2.01568660E-08,  6.39102259E-12, -2.56083087E+04,
                       5.90978137E+00]),
                NASA([1035.75, 5000.00],
                     [ 2.79184298E+00,  1.15827852E-02, -4.51551928E-06,
                       8.21206706E-10, -5.67063250E-14, -2.57211674E+04,
                       9.41061586E+00])),
        transport=gas_transport(geom='nonlinear',
                                diam=3.626,
                                well_depth=481.802,
                                rot_relax=1.0))

species(name='HCOOCH3(9)',
        atoms='C:2 H:4 O:2',
        thermo=(NASA([100.00, 1141.77],
                     [ 3.28123251E+00,  1.13180591E-02,  1.84477587E-05,
                      -2.41945197E-08,  7.75136395E-12, -4.46725565E+04,
                       1.20363735E+01]),
                NASA([1141.77, 5000.00],
                     [ 4.90989100E+00,  1.87529727E-02, -8.58328635E-06,
                       1.66847339E-09, -1.18612079E-13, -4.59010044E+04,
                       2.12202036E-01])),
        transport=gas_transport(geom='nonlinear',
                                diam=5.234,
                                well_depth=377.356))

species(name='CH4(41)',
        atoms='C:1 H:4',
        thermo=(NASA([100.00, 1084.12],
                     [ 4.20541524E+00, -5.35557362E-03,  2.51123265E-05,
                      -2.13762843E-08,  5.97523937E-12, -1.01619433E+04,
                      -9.21279283E-01]),
                NASA([1084.12, 5000.00],
                     [ 9.08265721E-01,  1.14540858E-02, -4.57173828E-06,
                       8.29191671E-10, -5.66314895E-14, -9.71997444E+03,
                       1.39930944E+01])),
        transport=gas_transport(geom='nonlinear',
                                diam=3.746,
                                well_depth=141.4,
                                polar=2.6,
                                rot_relax=13.0))

species(name='C2H4O2(70)',
        atoms='C:2 H:4 O:2',
        thermo=(NASA([100.00, 953.77],
                     [ 2.75093679E+00,  1.45252207E-02,  3.55422419E-05,
                      -6.12353004E-08,  2.54832555E-11, -3.99342731E+04,
                       1.35047088E+01]),
                NASA([953.77, 5000.00],
                     [ 1.27141752E+01,  5.31905349E-03, -1.21603544E-06,
                       2.71931769E-10, -2.64266325E-14, -4.33165824E+04,
                      -4.18586307E+01])),
        transport=gas_transport(geom='nonlinear',
                                diam=5.738,
                                well_depth=428.975))

species(name='CH4O2(178)',
        atoms='C:1 H:4 O:2',
        thermo=(NASA([10.00, 639.76],
                     [ 3.92739000E+00,  3.97483000E-03,  6.56102000E-05,
                      -1.23760000E-07,  6.75141000E-11, -4.82805000E+04,
                       6.35739000E+00]),
                NASA([639.76, 3000.00],
                     [ 4.46055000E+00,  1.93316000E-02, -1.42176000E-05,
                       5.09053000E-09, -6.81740000E-13, -4.87312000E+04,
                       1.03399000E+00])),
        transport=gas_transport(geom='nonlinear',
                                diam=5.898,
                                well_depth=436.691))

species(name='COCO(369)',
        atoms='C:2 H:6 O:2',
        thermo=(NASA([100.00, 916.53],
                     [ 2.31174687E+00,  2.23370122E-02,  3.35202426E-05,
                      -6.96367921E-08,  3.14454455E-11, -4.68597500E+04,
                       1.52955377E+01]),
                NASA([916.53, 5000.00],
                     [ 1.54934495E+01,  3.38468738E-03,  1.40345827E-06,
                      -3.53046917E-10,  2.08759349E-14, -5.08963005E+04,
                      -5.59887531E+01])),
        transport=gas_transport(geom='nonlinear',
                                diam=5.709,
                                well_depth=402.716))

species(name='OCCO(371)',
        atoms='C:2 H:6 O:2',
        thermo=(NASA([100.00, 1023.84],
                     [ 2.45006155E+00,  3.47926537E-02, -3.03303076E-05,
                       1.60435197E-08, -3.66599881E-12, -5.00259550E+04,
                       1.53943704E+01]),
                NASA([1023.84, 5000.00],
                     [ 6.37169814E+00,  1.94715478E-02, -7.88403928E-06,
                       1.42795275E-09, -9.72296828E-14, -5.08289901E+04,
                      -3.61770032E+00])),
        transport=gas_transport(geom='nonlinear',
                                diam=6.214,
                                well_depth=453.933))

species(name='C2H4O(376)',
        atoms='C:2 H:4 O:1',
        thermo=(NASA([100.00, 1028.81],
                     [ 3.57991319E+00,  5.18996203E-03,  2.26893060E-05,
                      -2.73736957E-08,  9.28455869E-12, -2.13697369E+04,
                       8.96975431E+00]),
                NASA([1028.81, 5000.00],
                     [ 4.08568882E+00,  1.39060358E-02, -5.59365394E-06,
                       1.04608143E-09, -7.38729265E-14, -2.20391558E+04,
                       3.76773341E+00])),
        transport=gas_transport(geom='nonlinear',
                                diam=3.97,
                                well_depth=436.001,
                                rot_relax=2.0))

species(name='C2H6O(381)',
        atoms='C:2 H:6 O:1',
        thermo=(NASA([100.00, 984.00],
                     [ 3.24025884E+00,  1.04859660E-02,  2.63967401E-05,
                      -3.69293176E-08,  1.36710427E-11, -2.99902844E+04,
                       1.11433043E+01]),
                NASA([984.00, 5000.00],
                     [ 5.68494415E+00,  1.61313246E-02, -5.96365484E-06,
                       1.08897147E-09, -7.69620396E-14, -3.12258222E+04,
                      -4.44490663E+00])),
        transport=gas_transport(geom='nonlinear',
                                diam=4.53,
                                well_depth=362.6,
                                rot_relax=1.5))

species(name='S(466)',
        atoms='C:3 H:6 O:2',
        thermo=(NASA([100.00, 458.36],
                     [ 2.71575232E+00,  3.40256897E-02, -2.07317479E-06,
                      -5.76439694E-08,  5.69362013E-11, -4.36366809E+04,
                       1.68216762E+01]),
                NASA([458.36, 5000.00],
                     [ 4.49411656E+00,  2.78855022E-02, -1.26723906E-05,
                       2.41350750E-09, -1.68517917E-13, -4.38982341E+04,
                       8.55463034E+00])),
        transport=gas_transport(geom='nonlinear',
                                diam=6.055,
                                well_depth=446.068))

species(name='OCCCO(968)',
        atoms='C:3 H:8 O:2',
        thermo=(NASA([100.00, 1028.79],
                     [ 1.83219582E+00,  4.92223024E-02, -4.28851739E-05,
                       2.23901748E-08, -5.06671537E-12, -5.28645111E+04,
                       1.98589342E+01]),
                NASA([1028.79, 5000.00],
                     [ 7.34247692E+00,  2.77980177E-02, -1.16481120E-05,
                       2.14826410E-09, -1.47859487E-13, -5.39982973E+04,
                      -6.88139577E+00])),
        transport=gas_transport(geom='nonlinear',
                                diam=6.53,
                                well_depth=471.09))

species(name='S(1118)',
        atoms='C:3 H:8 O:3',
        thermo=(NASA([100.00, 879.85],
                     [ 1.06252767E+00,  6.72520088E-02, -7.88483433E-05,
                       5.29872461E-08, -1.45895486E-11, -7.35812480E+04,
                       2.49818316E+01]),
                NASA([879.85, 5000.00],
                     [ 9.71908522E+00,  2.78990429E-02, -1.17609396E-05,
                       2.15702700E-09, -1.47319034E-13, -7.51046095E+04,
                      -1.56733628E+01])),
        transport=gas_transport(geom='nonlinear',
                                diam=7.255,
                                well_depth=541.248))

species(name='S(1135)',
        atoms='C:4 H:10 O:3',
        thermo=(NASA([100.00, 898.59],
                     [ 4.44432823E-01,  8.16637923E-02, -9.12505460E-05,
                       5.90234198E-08, -1.58152608E-11, -7.64197595E+04,
                       3.01417870E+01]),
                NASA([898.59, 5000.00],
                     [ 1.06258384E+01,  3.63419918E-02, -1.55955108E-05,
                       2.89458806E-09, -1.99417798E-13, -7.82495371E+04,
                      -1.78889046E+01])),
        transport=gas_transport(geom='nonlinear',
                                diam=7.573,
                                well_depth=558.639))

species(name='X(1)',
        atoms='X:1',
        thermo=(NASA([100.00, 1554.80],
                     [ 7.10139498E-03, -4.25619522E-05,  8.98533016E-08,
                      -7.80193649E-11,  2.32465471E-14, -8.76101712E-01,
                      -3.11211229E-02]),
                NASA([1554.80, 5000.00],
                     [ 1.60299900E-01, -2.52235409E-04,  1.14181275E-07,
                      -1.21471653E-11,  3.85790025E-16, -7.08100885E+01,
                      -9.09527530E-01])))

species(name='H*(10)',
        atoms='H:1 X:1',
        thermo=(NASA([100.00, 952.91],
                     [-3.80965452E-01,  5.47228709E-03,  2.60912778E-06,
                      -9.64961980E-09,  4.63946753E-12, -1.40561079E+03,
                       1.01725550E+00]),
                NASA([952.91, 5000.00],
                     [ 2.80339655E+00, -5.41047017E-04,  4.99507978E-07,
                      -7.54963647E-11,  3.06772366E-15, -2.34636021E+03,
                      -1.59436787E+01])))

species(name='O*(11)',
        atoms='O:1 X:1',
        thermo=(NASA([100.00, 888.26],
                     [-7.59007329E-01,  1.89867771E-02, -3.82470955E-05,
                       3.43554391E-08, -1.13972478E-11, -2.18355758E+04,
                       1.76015370E+00]),
                NASA([888.26, 5000.00],
                     [ 1.89892178E+00,  2.03297975E-03, -1.19978087E-06,
                       2.32684304E-10, -1.53511352E-14, -2.21111158E+04,
                      -9.64096026E+00])))

species(name='OH*(12)',
        atoms='H:1 O:1 X:1',
        thermo=(NASA([100.00, 914.58],
                     [-1.29513706E+00,  3.36476246E-02, -7.07717851E-05,
                       6.54315116E-08, -2.19410183E-11, -2.16453744E+04,
                       4.37624874E+00]),
                NASA([914.58, 5000.00],
                     [ 2.43515780E+00,  4.64644986E-03, -2.40014139E-06,
                       4.26415498E-10, -2.60661215E-14, -2.17971243E+04,
                      -1.03865094E+01])))

species(name='H2O*(13)',
        atoms='H:2 O:1 X:1',
        thermo=(NASA([100.00, 912.85],
                     [-1.34340138E+00,  3.66695539E-02, -7.99480721E-05,
                       7.74125241E-08, -2.68665364E-11, -3.23490305E+04,
                       1.10237667E+01]),
                NASA([912.85, 5000.00],
                     [ 1.12158920E+00,  8.16639256E-03, -4.02358034E-06,
                       7.20420773E-10, -4.51442235E-14, -3.20615235E+04,
                       3.39615620E+00])))

species(name='CO*(14)',
        atoms='C:1 O:1 X:1',
        thermo=(NASA([100.00, 891.33],
                     [-1.38214670E+00,  3.75306103E-02, -8.29761135E-05,
                       8.09705358E-08, -2.85472623E-11, -2.25369973E+04,
                       4.35449609E+00]),
                NASA([891.33, 5000.00],
                     [ 1.38092053E+00,  8.05716548E-03, -4.64307501E-06,
                       8.91167184E-10, -5.90045403E-14, -2.23513288E+04,
                      -4.85325804E+00])))

species(name='CO2*(15)',
        atoms='C:1 O:2 X:1',
        thermo=(NASA([100.00, 953.60],
                     [ 3.09268416E+00,  5.29285051E-03,  8.99424169E-06,
                      -1.67126189E-08,  7.04895731E-12, -4.52128351E+04,
                      -5.10054525E+00]),
                NASA([953.60, 5000.00],
                     [ 5.99804988E+00,  2.27482238E-03, -6.81075329E-07,
                       1.34428306E-10, -1.11506248E-14, -4.61838333E+04,
                      -2.11650815E+01])))

species(name='HCO*(16)',
        atoms='C:1 H:1 O:1 X:1',
        thermo=(NASA([100.00, 873.22],
                     [-1.43679537E+00,  3.69243480E-02, -7.17904167E-05,
                       6.73532499E-08, -2.35178167E-11, -2.16948351E+04,
                       8.27561789E+00]),
                NASA([873.22, 5000.00],
                     [ 1.83280181E+00,  1.00778749E-02, -5.28533237E-06,
                       1.01351974E-09, -6.85184058E-14, -2.18133254E+04,
                      -4.46392059E+00])))

species(name='HCOO*(17)',
        atoms='C:1 H:1 O:2 X:1',
        thermo=(NASA([100.00, 956.09],
                     [ 3.40105120E+00,  8.17066980E-03,  1.08107737E-05,
                      -2.16698753E-08,  9.26697424E-12, -3.65515580E+04,
                      -8.40035312E+00]),
                NASA([956.09, 5000.00],
                     [ 7.56067772E+00,  3.23174228E-03, -9.94984934E-07,
                       1.97189961E-10, -1.62207113E-14, -3.79166082E+04,
                      -3.12604645E+01])))

species(name='COOH*(18)',
        atoms='C:1 H:1 O:2 X:1',
        thermo=(NASA([100.00, 943.40],
                     [ 3.72340236E+00, -4.27932838E-03,  5.09064157E-05,
                      -6.55312082E-08,  2.52469411E-11, -3.82560135E+04,
                      -7.82080376E+00]),
                NASA([943.40, 5000.00],
                     [ 8.73074431E+00,  9.99296790E-04,  3.63420911E-07,
                      -2.85465672E-11, -4.35216598E-15, -4.03804892E+04,
                      -3.79389019E+01])))

species(name='CH2O*(19)',
        atoms='C:1 H:2 O:1 X:1',
        thermo=(NASA([100.00, 879.32],
                     [-1.46696967E+00,  4.13871743E-02, -8.87616535E-05,
                       9.10110992E-08, -3.36607081E-11, -2.03002411E+04,
                       1.57178332E+01]),
                NASA([879.32, 5000.00],
                     [-8.92927768E-01,  1.66196503E-02, -8.71596166E-06,
                       1.66816675E-09, -1.12503958E-13, -1.95446346E+04,
                       1.78928299E+01])))

species(name='CH3O*(20)',
        atoms='C:1 H:3 O:1 X:1',
        thermo=(NASA([100.00, 857.67],
                     [-1.68419050E+00,  4.28019546E-02, -7.50767196E-05,
                       7.03658026E-08, -2.50908186E-11, -2.23136964E+04,
                       7.76412161E+00]),
                NASA([857.67, 5000.00],
                     [ 1.14786899E+00,  1.71346045E-02, -8.39649029E-06,
                       1.59810518E-09, -1.08977854E-13, -2.23412385E+04,
                      -2.79262277E+00])))

species(name='CH3O2*(21)',
        atoms='C:1 H:3 O:2 X:1',
        thermo=(NASA([100.00, 932.26],
                     [ 3.21916271E+00,  6.71721821E-03,  3.72271942E-05,
                      -5.73634070E-08,  2.36261155E-11, -4.17325387E+04,
                      -6.14518402E+00]),
                NASA([932.26, 5000.00],
                     [ 1.03102378E+01,  3.04296758E-03,  9.70761635E-08,
                      -3.19266012E-11, -2.13473240E-15, -4.42171712E+04,
                      -4.60928875E+01])))

species(name='CH3OH*(22)',
        atoms='C:1 H:4 O:1 X:1',
        thermo=(NASA([100.00, 850.41],
                     [-1.64009981E+00,  4.09976611E-02, -6.66166227E-05,
                       6.12112419E-08, -2.17734200E-11, -3.05087359E+04,
                       1.38245399E+01]),
                NASA([850.41, 5000.00],
                     [ 1.01837261E+00,  1.82966199E-02, -8.58976461E-06,
                       1.62231337E-09, -1.10732500E-13, -3.05921894E+04,
                       3.59753323E+00])))

species(name='CHX(32)',
        atoms='C:1 H:1 X:1',
        thermo=(NASA([100.00, 1596.82],
                     [-9.66375239E-01,  1.63179003E-02, -1.75392280E-05,
                       8.64095863E-09, -1.55501450E-12,  1.46164966E+04,
                       2.54982370E+00]),
                NASA([1596.82, 5000.00],
                     [ 4.21481268E+00,  2.18383120E-04,  5.15662242E-07,
                      -1.20800791E-10,  8.35331125E-15,  1.33596812E+04,
                      -2.36254632E+01])))

species(name='CH3OX(46)',
        atoms='C:1 H:3 O:1 X:1',
        thermo=(NASA([100.00, 813.94],
                     [-1.68232083E+00,  3.97249389E-02, -5.96107529E-05,
                       4.86920970E-08, -1.58049204E-11, -2.91607679E+04,
                       8.26687835E+00]),
                NASA([813.94, 5000.00],
                     [ 3.25579221E+00,  1.30434803E-02, -5.99158702E-06,
                       1.13138422E-09, -7.77149614E-14, -2.98846770E+04,
                      -1.40488937E+01])))

species(name='H2X(50)',
        atoms='H:2 X:1',
        thermo=(NASA([100.00, 911.33],
                     [-1.27856724E+00,  3.68010102E-02, -8.90296992E-05,
                       8.91132730E-08, -3.14511582E-11, -1.33397682E+03,
                       1.13160562E+01]),
                NASA([911.33, 5000.00],
                     [ 6.45631937E-01,  6.69563800E-03, -3.82690860E-06,
                       7.04725296E-10, -4.41024465E-14, -7.85256799E+02,
                       7.14633349E+00])))

species(name='CO2X(51)',
        atoms='C:1 O:2 X:2',
        thermo=(NASA([100.00, 924.23],
                     [ 3.12758069E+00, -5.98581586E-04,  3.64330738E-05,
                      -5.17473806E-08,  2.10843705E-11, -6.15075290E+04,
                      -1.62509607E+01]),
                NASA([924.23, 5000.00],
                     [ 8.66361110E+00, -1.93863890E-03,  1.89733836E-06,
                      -3.56013731E-10,  2.05539006E-14, -6.34969260E+04,
                      -4.77493127E+01])))

species(name='CH2OX2(52)',
        atoms='C:1 H:2 O:1 X:2',
        thermo=(NASA([100.00, 777.56],
                     [-1.44645549E+00,  3.42803139E-02, -5.09483795E-05,
                       4.03732306E-08, -1.27356452E-11, -1.75584787E+04,
                       6.09156343E+00]),
                NASA([777.56, 5000.00],
                     [ 3.18259452E+00,  1.04657053E-02, -5.00464545E-06,
                       9.79545329E-10, -6.90993489E-14, -1.82783093E+04,
                      -1.50760119E+01])))

species(name='SX(53)',
        atoms='C:1 H:2 O:2 X:2',
        thermo=(NASA([100.00, 947.22],
                     [ 3.60813223E+00, -4.01764498E-03,  6.20550300E-05,
                      -7.98278285E-08,  3.05870174E-11, -5.99278713E+04,
                      -1.46162600E+01]),
                NASA([947.22, 5000.00],
                     [ 9.56952207E+00,  3.11009633E-03, -3.85433283E-07,
                       1.21094514E-10, -1.61051783E-14, -6.25063227E+04,
                      -5.07025253E+01])))

species(name='CH3X(55)',
        atoms='C:1 H:3 X:1',
        thermo=(NASA([100.00, 848.30],
                     [-1.21090496E+00,  2.92390681E-02, -4.49011079E-05,
                       3.86009808E-08, -1.30361041E-11, -1.29919995E+02,
                       6.80939750E+00]),
                NASA([848.30, 5000.00],
                     [ 1.62290877E+00,  1.12987268E-02, -5.08316908E-06,
                       9.46833581E-10, -6.42885536E-14, -4.45984900E+02,
                      -5.42501059E+00])))

species(name='SX(56)',
        atoms='C:2 H:4 O:2 X:2',
        thermo=(NASA([100.00, 992.51],
                     [ 3.12546236E+00,  8.35290631E-03,  4.57804099E-05,
                      -6.16886880E-08,  2.28051689E-11, -5.77792309E+04,
                      -1.02129489E+01]),
                NASA([992.51, 5000.00],
                     [ 8.25423559E+00,  1.52384608E-02, -6.27111488E-06,
                       1.24730629E-09, -9.36401801E-14, -6.01545099E+04,
                      -4.17550138E+01])))

species(name='SX(57)',
        atoms='C:2 H:3 O:2 X:1',
        thermo=(NASA([100.00, 1039.03],
                     [ 2.71977634E+00,  2.09411852E-02,  6.19343447E-06,
                      -2.18935153E-08,  9.16870082E-12, -3.69638336E+04,
                      -7.23233236E+00]),
                NASA([1039.03, 5000.00],
                     [ 9.24579964E+00,  1.24763035E-02, -5.63574913E-06,
                       1.12728846E-09, -8.31652808E-14, -3.92191913E+04,
                      -4.32936742E+01])))

species(name='COX(60)',
        atoms='C:1 O:1 X:2',
        thermo=(NASA([100.00, 909.37],
                     [ 3.38594826E+00, -3.61037683E-03,  2.96549615E-05,
                      -3.97466056E-08,  1.61030274E-11, -1.54090805E+04,
                      -1.85679259E+01]),
                NASA([909.37, 5000.00],
                     [ 6.79120510E+00, -2.75483161E-03,  2.12546773E-06,
                      -4.16930504E-10,  2.67049548E-14, -1.66831090E+04,
                      -3.82725652E+01])))

species(name='CHOX2(61)',
        atoms='C:1 H:1 O:1 X:2',
        thermo=(NASA([100.00, 689.33],
                     [-1.32716780E+00,  3.17587333E-02, -5.05065871E-05,
                       3.95520303E-08, -1.17505741E-11, -1.46027731E+04,
                       3.92679635E+00]),
                NASA([689.33, 5000.00],
                     [ 3.47343833E+00,  7.03348332E-03, -3.51779073E-06,
                       6.98047945E-10, -4.93382204E-14, -1.53390119E+04,
                      -1.79870016E+01])))

species(name='CH2X(63)',
        atoms='C:1 H:2 X:1',
        thermo=(NASA([100.00, 1199.82],
                     [-1.02006594E+00,  2.03778552E-02, -2.17291076E-05,
                       1.15868543E-08, -2.38469979E-12,  1.16284673E+04,
                       2.99160459E+00]),
                NASA([1199.82, 5000.00],
                     [ 3.89285483E+00,  3.99892281E-03, -1.25227942E-06,
                       2.09081361E-10, -1.39642489E-14,  1.04495485E+04,
                      -2.16053707E+01])))
