units(length='cm', time='s', quantity='mol', act_energy='kcal/mol')

ideal_gas(name='gas',
          elements="H D T C Ci O Oi N Ne Ar He Si S F Cl Br I X",
          species="""N2          Ne          H2(2)       CO(3)
                     CO2(4)      H2O(5)      CH2O(6)     HCOOH(7)
                     CH3OH(8)    HCOOCH3(9)  CH4(41)     CH4O2(178)
                     OCCO(437)   S(468)""",
          reactions='gas-*',
          transport='Mix',
          initial_state=state(temperature=300.0, pressure=OneAtm))

ideal_interface(name='surface1',
                elements="H D T C Ci O Oi N Ne Ar He Si S F Cl Br I X",
                species="""X(1)        H*(10)      O*(11)      OH*(12)
                          H2O*(13)    CO*(14)     CO2*(15)    HCO*(16)
                          HCOO*(17)   COOH*(18)   CH2O*(19)   CH3O*(20)
                          CH3O2*(21)  CH3OH*(22)  CX(31)      CHX(32)
                          CH3OX(46)   CH3O2X(49)  H2_ads(50)  CO2X(51)
                          CH2OX2(52)  SX(53)      CH3X(55)    SX(57)
                          COX(60)     CHOX2(61)   HOCOX(62)   CH2X(63)
                          SX(166)     CHOX(175)   CH2OX(176)  SX(197)
                          SX(199)     SX(222)     SX(403)     SX(438)
                          SX(449)     SX(450)     CH4X(472)   C2HOX(618)""",
                site_density=2.483e-09,
                phases="gas",
          reactions='surface1-*',
                initial_state=state(temperature=300.0, pressure=OneAtm))

#-------------------------------------------------------------------------------
# Element data
#-------------------------------------------------------------------------------

element(symbol='Ci', atomic_mass=13.003)
element(symbol='D', atomic_mass=2.014)
element(symbol='Oi', atomic_mass=18.0)
element(symbol='T', atomic_mass=3.016)
element(symbol='X', atomic_mass=195.083)
#-------------------------------------------------------------------------------
# Species data
#-------------------------------------------------------------------------------

species(name='N2',
        atoms='N:2',
        thermo=(NASA([200.00, 1000.00],
                     [ 3.53101000E+00, -1.23661000E-04, -5.02999000E-07,
                       2.43531000E-09, -1.40881000E-12, -1.04698000E+03,
                       2.96747000E+00]),
                NASA([1000.00, 6000.00],
                     [ 2.95258000E+00,  1.39690000E-03, -4.92632000E-07,
                       7.86010000E-11, -4.60755000E-15, -9.23949000E+02,
                       5.87189000E+00])),
        transport=gas_transport(geom='linear',
                                diam=3.621,
                                well_depth=97.53,
                                polar=1.76,
                                rot_relax=4.0))

species(name='Ne',
        atoms='Ne:1',
        thermo=(NASA([200.00, 1000.00],
                     [ 2.50000000E+00,  0.00000000E+00,  0.00000000E+00,
                       0.00000000E+00,  0.00000000E+00, -7.45375000E+02,
                       3.35532000E+00]),
                NASA([1000.00, 6000.00],
                     [ 2.50000000E+00,  0.00000000E+00,  0.00000000E+00,
                       0.00000000E+00,  0.00000000E+00, -7.45375000E+02,
                       3.35532000E+00])),
        transport=gas_transport(geom='atom',
                                diam=3.758,
                                well_depth=148.6))

species(name='H2(2)',
        atoms='H:2',
        thermo=(NASA([100.00, 1959.08],
                     [ 3.43536412E+00,  2.12710353E-04, -2.78625043E-07,
                       3.40267167E-10, -7.76031998E-14, -1.03135984E+03,
                      -3.90841732E+00]),
                NASA([1959.08, 5000.00],
                     [ 2.78816583E+00,  5.87640942E-04,  1.59010417E-07,
                      -5.52739026E-11,  4.34310984E-15, -5.96144270E+02,
                       1.12732655E-01])),
        transport=gas_transport(geom='linear',
                                diam=2.92,
                                well_depth=38.0,
                                polar=0.79,
                                rot_relax=280.0))

species(name='CO(3)',
        atoms='C:1 O:1',
        thermo=(NASA([100.00, 1571.63],
                     [ 3.56838038E+00, -8.52129500E-04,  2.48918819E-06,
                      -1.56331996E-09,  3.13598127E-13, -1.42842550E+04,
                       3.57912028E+00]),
                NASA([1571.63, 5000.00],
                     [ 2.91305202E+00,  1.64659937E-03, -6.88625686E-07,
                       1.21039677E-10, -7.84035796E-15, -1.41808768E+04,
                       6.71054299E+00])),
        transport=gas_transport(geom='linear',
                                diam=3.65,
                                well_depth=98.1,
                                polar=1.95,
                                rot_relax=1.8))

species(name='CO2(4)',
        atoms='C:1 O:2',
        thermo=(NASA([100.00, 978.21],
                     [ 3.28084634E+00,  2.50183460E-03,  8.08199998E-06,
                      -1.20511416E-08,  4.66547255E-12, -4.84008304E+04,
                       6.00080795E+00]),
                NASA([978.21, 5000.00],
                     [ 4.67426743E+00,  2.60964031E-03, -9.85689857E-07,
                       1.95713857E-10, -1.49836245E-14, -4.89512140E+04,
                      -2.11073617E+00])),
        transport=gas_transport(geom='linear',
                                diam=3.763,
                                well_depth=244.001,
                                polar=2.65,
                                rot_relax=2.1))

species(name='H2O(5)',
        atoms='H:2 O:1',
        thermo=(NASA([100.00, 1130.24],
                     [ 4.05763610E+00, -7.87938871E-04,  2.90878480E-06,
                      -1.47520039E-09,  2.12847506E-13, -3.02815866E+04,
                      -3.11365027E-01]),
                NASA([1130.24, 5000.00],
                     [ 2.84324866E+00,  2.75108838E-03, -7.81033120E-07,
                       1.07244016E-10, -5.79395308E-15, -2.99586120E+04,
                       5.91043011E+00])),
        transport=gas_transport(geom='nonlinear',
                                diam=2.605,
                                well_depth=572.402,
                                dipole=1.844,
                                rot_relax=4.0))

species(name='CH2O(6)',
        atoms='C:1 H:2 O:1',
        thermo=(NASA([100.00, 1070.44],
                     [ 4.12927802E+00, -4.08401318E-03,  2.03229341E-05,
                      -1.83524244E-08,  5.37975522E-12, -1.44294640E+04,
                       3.22418463E+00]),
                NASA([1070.44, 5000.00],
                     [ 2.21172442E+00,  7.94265679E-03, -3.34193053E-06,
                       6.28471401E-10, -4.40431446E-14, -1.42974456E+04,
                       1.13048985E+01])),
        transport=gas_transport(geom='nonlinear',
                                diam=3.59,
                                well_depth=498.002,
                                rot_relax=2.0))

species(name='HCOOH(7)',
        atoms='C:1 H:2 O:2',
        thermo=(NASA([100.00, 993.73],
                     [ 3.76241335E+00, -9.43947850E-04,  3.38781957E-05,
                      -4.04987780E-08,  1.43988412E-11, -4.68212105E+04,
                       7.63273333E+00]),
                NASA([993.73, 5000.00],
                     [ 5.64497050E+00,  7.55187503E-03, -3.20854541E-06,
                       6.58926362E-10, -5.05061286E-14, -4.79889887E+04,
                      -5.43086107E+00])),
        transport=gas_transport(geom='nonlinear',
                                diam=3.626,
                                well_depth=481.8,
                                dipole=1.7,
                                rot_relax=1.0))

species(name='CH3OH(8)',
        atoms='C:1 H:4 O:1',
        thermo=(NASA([100.00, 1035.75],
                     [ 3.84006214E+00,  1.38241998E-03,  1.91667191E-05,
                      -2.01568660E-08,  6.39102259E-12, -2.56083087E+04,
                       5.90978137E+00]),
                NASA([1035.75, 5000.00],
                     [ 2.79184298E+00,  1.15827852E-02, -4.51551928E-06,
                       8.21206706E-10, -5.67063250E-14, -2.57211674E+04,
                       9.41061586E+00])),
        transport=gas_transport(geom='nonlinear',
                                diam=3.626,
                                well_depth=481.802,
                                rot_relax=1.0))

species(name='HCOOCH3(9)',
        atoms='C:2 H:4 O:2',
        thermo=(NASA([100.00, 1141.77],
                     [ 3.28123251E+00,  1.13180591E-02,  1.84477587E-05,
                      -2.41945197E-08,  7.75136395E-12, -4.46725565E+04,
                       1.20363735E+01]),
                NASA([1141.77, 5000.00],
                     [ 4.90989100E+00,  1.87529727E-02, -8.58328635E-06,
                       1.66847339E-09, -1.18612079E-13, -4.59010044E+04,
                       2.12202036E-01])),
        transport=gas_transport(geom='nonlinear',
                                diam=5.234,
                                well_depth=377.356))

species(name='CH4(41)',
        atoms='C:1 H:4',
        thermo=(NASA([100.00, 1084.12],
                     [ 4.20541524E+00, -5.35557362E-03,  2.51123265E-05,
                      -2.13762843E-08,  5.97523937E-12, -1.01619433E+04,
                      -9.21279283E-01]),
                NASA([1084.12, 5000.00],
                     [ 9.08265721E-01,  1.14540858E-02, -4.57173828E-06,
                       8.29191671E-10, -5.66314895E-14, -9.71997444E+03,
                       1.39930944E+01])),
        transport=gas_transport(geom='nonlinear',
                                diam=3.746,
                                well_depth=141.4,
                                polar=2.6,
                                rot_relax=13.0))

species(name='CH4O2(178)',
        atoms='C:1 H:4 O:2',
        thermo=(NASA([10.00, 639.76],
                     [ 3.92739000E+00,  3.97483000E-03,  6.56102000E-05,
                      -1.23760000E-07,  6.75141000E-11, -4.82805000E+04,
                       6.35739000E+00]),
                NASA([639.76, 3000.00],
                     [ 4.46055000E+00,  1.93316000E-02, -1.42176000E-05,
                       5.09053000E-09, -6.81740000E-13, -4.87312000E+04,
                       1.03399000E+00])),
        transport=gas_transport(geom='nonlinear',
                                diam=5.898,
                                well_depth=436.691))

species(name='OCCO(437)',
        atoms='C:2 H:6 O:2',
        thermo=(NASA([100.00, 1023.84],
                     [ 2.45006155E+00,  3.47926537E-02, -3.03303076E-05,
                       1.60435197E-08, -3.66599881E-12, -5.00259550E+04,
                       1.53943704E+01]),
                NASA([1023.84, 5000.00],
                     [ 6.37169814E+00,  1.94715478E-02, -7.88403928E-06,
                       1.42795275E-09, -9.72296828E-14, -5.08289901E+04,
                      -3.61770032E+00])),
        transport=gas_transport(geom='nonlinear',
                                diam=6.214,
                                well_depth=453.933))

species(name='S(468)',
        atoms='C:2 H:4 O:2',
        thermo=(NASA([100.00, 1020.01],
                     [ 3.21748826E+00,  1.02436173E-02,  2.71475099E-05,
                      -3.76380133E-08,  1.35868741E-11, -5.35456809E+04,
                       1.20525287E+01]),
                NASA([1020.01, 5000.00],
                     [ 6.36119375E+00,  1.55129261E-02, -6.47988274E-06,
                       1.25442971E-09, -9.10572754E-14, -5.51024351E+04,
                      -7.66369748E+00])),
        transport=gas_transport(geom='nonlinear',
                                diam=5.643,
                                well_depth=452.392))

species(name='X(1)',
        atoms='X:1',
        thermo=(NASA([298.00, 1000.00],
                     [ 0.00000000E+00,  0.00000000E+00,  0.00000000E+00,
                       0.00000000E+00,  0.00000000E+00,  0.00000000E+00,
                       0.00000000E+00]),
                NASA([1000.00, 3000.00],
                     [ 0.00000000E+00,  0.00000000E+00,  0.00000000E+00,
                       0.00000000E+00,  0.00000000E+00,  0.00000000E+00,
                       0.00000000E+00])))

species(name='H*(10)',
        atoms='H:1 X:1',
        thermo=(NASA([298.00, 1000.00],
                     [-1.96702988E+00,  1.67920714E-02, -2.50314139E-05,
                       1.80485455E-08, -5.11491197E-12, -3.21277026E+03,
                       7.68211257E+00]),
                NASA([1000.00, 2000.00],
                     [ 2.71968546E+00, -1.07696656E-03,  2.00193294E-06,
                      -1.12865983E-09,  2.11269165E-13, -4.24701712E+03,
                      -1.52793490E+01])))

species(name='O*(11)',
        atoms='O:1 X:1',
        thermo=(NASA([298.00, 1000.00],
                     [ 1.79722382E-01,  1.25453156E-02, -2.29924588E-05,
                       1.94187177E-08, -6.22414099E-12, -1.73402246E+04,
                      -2.22409728E+00]),
                NASA([1000.00, 2000.00],
                     [ 2.92050897E+00, -2.70455589E-04,  5.15610634E-07,
                      -2.93911213E-10,  5.54030466E-14, -1.78369003E+04,
                      -1.50940536E+01])))

species(name='OH*(12)',
        atoms='H:1 O:1 X:1',
        thermo=(NASA([298.00, 1000.00],
                     [ 1.07348583E+00,  1.72652206E-02, -3.17712232E-05,
                       2.71536568E-08, -8.69449304E-12, -1.96002909E+04,
                      -5.65622336E+00]),
                NASA([1000.00, 2000.00],
                     [ 5.01870328E+00, -1.35424298E-03,  2.27686310E-06,
                      -1.09407298E-09,  1.79396487E-13, -2.02979842E+04,
                      -2.41159621E+01])))

species(name='H2O*(13)',
        atoms='H:2 O:1 X:1',
        thermo=(NASA([298.00, 1000.00],
                     [ 2.53777266E+00,  9.45372010E-03, -1.41325664E-05,
                       1.16730945E-08, -3.67657640E-12, -3.27590463E+04,
                      -5.36548561E+00]),
                NASA([1000.00, 2000.00],
                     [ 5.84789466E+00, -3.31526816E-03,  5.62018785E-06,
                      -2.75864893E-09,  4.61279066E-13, -3.34885608E+04,
                      -2.15622699E+01])))

species(name='CO*(14)',
        atoms='C:1 O:1 X:1',
        thermo=(NASA([298.00, 1000.00],
                     [ 2.70112272E+00,  8.76650166E-03, -1.29512418E-05,
                       1.04194594E-08, -3.39700490E-12, -3.49476634E+04,
                      -1.28730512E+01]),
                NASA([1000.00, 2000.00],
                     [ 5.52820880E+00, -1.52631254E-03,  2.79791895E-06,
                      -1.54550129E-09,  2.84523223E-13, -3.56231280E+04,
                      -2.69156979E+01])))

species(name='CO2*(15)',
        atoms='C:1 O:2 X:1',
        thermo=(NASA([100.00, 953.60],
                     [ 3.09268416E+00,  5.29285051E-03,  8.99424169E-06,
                      -1.67126189E-08,  7.04895731E-12, -4.52128351E+04,
                      -5.10054525E+00]),
                NASA([953.60, 5000.00],
                     [ 5.99804988E+00,  2.27482238E-03, -6.81075329E-07,
                       1.34428306E-10, -1.11506248E-14, -4.61838333E+04,
                      -2.11650815E+01])))

species(name='HCO*(16)',
        atoms='C:1 H:1 O:1 X:1',
        thermo=(NASA([298.00, 1000.00],
                     [ 1.94156388E+00,  1.30882912E-02, -1.34260003E-05,
                       7.97044677E-09, -2.06719711E-12, -2.80413711E+04,
                      -5.97802577E+00]),
                NASA([1000.00, 2000.00],
                     [ 7.49136303E+00, -4.18949199E-03,  7.54544313E-06,
                      -4.07863095E-09,  7.38421146E-13, -2.94916141E+04,
                      -3.42076640E+01])))

species(name='HCOO*(17)',
        atoms='C:1 H:1 O:2 X:1',
        thermo=(NASA([100.00, 956.09],
                     [ 3.40105120E+00,  8.17066980E-03,  1.08107737E-05,
                      -2.16698753E-08,  9.26697424E-12, -3.42532449E+04,
                      -8.40035312E+00]),
                NASA([956.09, 5000.00],
                     [ 7.56067772E+00,  3.23174228E-03, -9.94984934E-07,
                       1.97189961E-10, -1.62207113E-14, -3.56182951E+04,
                      -3.12604645E+01])))

species(name='COOH*(18)',
        atoms='C:1 H:1 O:2 X:1',
        thermo=(NASA([100.00, 943.40],
                     [ 3.72340236E+00, -4.27932838E-03,  5.09064157E-05,
                      -6.55312082E-08,  2.52469411E-11, -4.42463163E+04,
                      -7.82080376E+00]),
                NASA([943.40, 5000.00],
                     [ 8.73074431E+00,  9.99296790E-04,  3.63420911E-07,
                      -2.85465672E-11, -4.35216598E-15, -4.63707920E+04,
                      -3.79389019E+01])))

species(name='CH2O*(19)',
        atoms='C:1 H:2 O:1 X:1',
        thermo=(NASA([298.00, 1000.00],
                     [ 4.87258154E+00, -3.80708439E-03,  2.29126729E-05,
                      -2.34870004E-08,  7.95457450E-12, -2.09616356E+04,
                      -1.09618928E+01]),
                NASA([1000.00, 2000.00],
                     [ 8.42973399E+00, -6.84404724E-03,  1.22430399E-05,
                      -6.56317791E-09,  1.18019535E-12, -2.23198421E+04,
                      -3.11097315E+01])))

species(name='CH3O*(20)',
        atoms='C:1 H:3 O:1 X:1',
        thermo=(NASA([298.00, 1000.00],
                     [ 2.88933974E+00,  1.02968448E-02,  5.34962049E-06,
                      -1.25531705E-08,  5.32156610E-12, -2.04952765E+04,
                      -1.15047899E+01]),
                NASA([1000.00, 2000.00],
                     [ 1.12817565E+01, -9.42267565E-03,  1.67985868E-05,
                      -8.95802947E-09,  1.60456258E-12, -2.29996396E+04,
                      -5.57516428E+01])))

species(name='CH3O2*(21)',
        atoms='C:1 H:3 O:2 X:1',
        thermo=(NASA([100.00, 932.26],
                     [ 3.21916271E+00,  6.71721821E-03,  3.72271942E-05,
                      -5.73634070E-08,  2.36261155E-11, -3.94342256E+04,
                      -6.14518402E+00]),
                NASA([932.26, 5000.00],
                     [ 1.03102378E+01,  3.04296758E-03,  9.70761635E-08,
                      -3.19266012E-11, -2.13473240E-15, -4.19188581E+04,
                      -4.60928875E+01])))

species(name='CH3OH*(22)',
        atoms='C:1 H:4 O:1 X:1',
        thermo=(NASA([298.00, 1000.00],
                     [ 2.70506726E+00,  1.00913594E-02,  1.00260680E-05,
                      -1.80909603E-08,  7.44539499E-12, -3.09647604E+04,
                      -4.48135960E+00]),
                NASA([1000.00, 2000.00],
                     [ 1.21539459E+01, -1.13173411E-02,  2.00342036E-05,
                      -1.05724068E-08,  1.87852776E-12, -3.38115989E+04,
                      -5.44617359E+01])))

species(name='CX(31)',
        atoms='C:1 X:1',
        thermo=(NASA([298.00, 1000.00],
                     [-1.73430697E+00,  1.89855471E-02, -3.23563661E-05,
                       2.59269890E-08, -7.99102104E-12,  6.36385922E+03,
                       6.25445028E+00]),
                NASA([1000.00, 2000.00],
                     [ 2.82193241E+00, -6.61177416E-04,  1.24180431E-06,
                      -7.03993893E-10,  1.32276605E-13,  5.46467816E+03,
                      -1.55251271E+01])))

species(name='CHX(32)',
        atoms='C:1 H:1 X:1',
        thermo=(NASA([298.00, 1000.00],
                     [-3.00950779E+00,  3.02193341E-02, -4.99546294E-05,
                       3.99478464E-08, -1.23021593E-11, -3.13353859E+03,
                       1.12314464E+01]),
                NASA([1000.00, 2000.00],
                     [ 4.88482023E+00, -2.70846119E-03,  4.84648118E-06,
                      -2.58513645E-09,  4.63180319E-13, -4.75082800E+03,
                      -2.67870735E+01])))

species(name='CH3OX(46)',
        atoms='C:1 H:3 O:1 X:1',
        thermo=(NASA([298.00, 1000.00],
                     [ 6.90559347E-01,  2.31880081E-02, -1.92723889E-05,
                       7.42264515E-09, -6.88671342E-13, -3.54054895E+04,
                      -1.78049680E+00]),
                NASA([1000.00, 2000.00],
                     [ 1.13189670E+01, -8.55328894E-03,  1.51576215E-05,
                      -8.00760803E-09,  1.42446093E-12, -3.82049819E+04,
                      -5.60575095E+01])))

species(name='CH3O2X(49)',
        atoms='C:1 H:3 O:2 X:1',
        thermo=(NASA([100.00, 746.21],
                     [ 3.00755399E+00,  2.43556128E-02, -3.26149688E-05,
                       3.02343583E-08, -1.19234123E-11, -4.63652228E+04,
                      -5.97034441E+00]),
                NASA([746.21, 5000.00],
                     [ 3.93253861E+00,  1.57288387E-02, -7.89951120E-06,
                       1.56520148E-09, -1.11218613E-13, -4.64011350E+04,
                      -9.47771500E+00])))

species(name='H2_ads(50)',
        atoms='H:2 X:1',
        thermo=(NASA([298.00, 1000.00],
                     [ 3.78935111E+00,  1.10148021E-03, -2.31320100E-06,
                       2.11937826E-09, -6.31350224E-13, -1.86700333E+03,
                      -1.00616465E+01]),
                NASA([1000.00, 2000.00],
                     [ 4.06700165E+00, -5.01780079E-04,  6.70738856E-07,
                      -1.79170942E-10,  8.86886631E-15, -1.89107687E+03,
                      -1.12621699E+01])))

species(name='CO2X(51)',
        atoms='C:1 O:2 X:2',
        thermo=(NASA([100.00, 924.23],
                     [ 3.12758069E+00, -5.98581586E-04,  3.64330738E-05,
                      -5.17473806E-08,  2.10843705E-11, -6.51995187E+04,
                      -1.62509607E+01]),
                NASA([924.23, 5000.00],
                     [ 8.66361110E+00, -1.93863890E-03,  1.89733836E-06,
                      -3.56013731E-10,  2.05539006E-14, -6.71889158E+04,
                      -4.77493127E+01])))

species(name='CH2OX2(52)',
        atoms='C:1 H:2 O:1 X:2',
        thermo=(NASA([298.00, 1000.00],
                     [ 1.02400610E-01,  2.37197512E-02, -2.57930815E-05,
                       1.52033151E-08, -3.68397327E-12, -2.14196483E+04,
                      -4.98129327E-01]),
                NASA([1000.00, 2000.00],
                     [ 9.52719632E+00, -6.50602819E-03,  1.16581384E-05,
                      -6.25773731E-09,  1.12684291E-12, -2.38121944E+04,
                      -4.81511621E+01])))

species(name='SX(53)',
        atoms='C:1 H:2 O:2 X:2',
        thermo=(NASA([100.00, 947.22],
                     [ 3.60813223E+00, -4.01764498E-03,  6.20550300E-05,
                      -7.98278285E-08,  3.05870174E-11, -6.36198611E+04,
                      -1.46162600E+01]),
                NASA([947.22, 5000.00],
                     [ 9.56952207E+00,  3.11009633E-03, -3.85433283E-07,
                       1.21094514E-10, -1.61051783E-14, -6.61983124E+04,
                      -5.07025253E+01])))

species(name='CH3X(55)',
        atoms='C:1 H:3 X:1',
        thermo=(NASA([298.00, 1000.00],
                     [ 5.80099877E-01,  1.66399977E-02, -1.39164870E-05,
                       6.70631582E-09, -1.31079175E-12, -6.31046932E+03,
                      -7.57148375E-01]),
                NASA([1000.00, 2000.00],
                     [ 8.67869881E+00, -7.84238420E-03,  1.38956076E-05,
                      -7.33600190E-09,  1.30321431E-12, -8.45079729E+03,
                      -4.20966823E+01])))

species(name='SX(57)',
        atoms='C:2 H:3 O:2 X:1',
        thermo=(NASA([100.00, 1039.03],
                     [ 2.71977634E+00,  2.09411852E-02,  6.19343447E-06,
                      -2.18935153E-08,  9.16870082E-12, -4.29541364E+04,
                      -7.23233236E+00]),
                NASA([1039.03, 5000.00],
                     [ 9.24579964E+00,  1.24763035E-02, -5.63574913E-06,
                       1.12728846E-09, -8.31652808E-14, -4.52094941E+04,
                      -4.32936742E+01])))

species(name='COX(60)',
        atoms='C:1 O:1 X:2',
        thermo=(NASA([100.00, 909.37],
                     [ 3.38594826E+00, -3.61037683E-03,  2.96549615E-05,
                      -3.97466056E-08,  1.61030274E-11, -3.10816759E+04,
                      -1.85679259E+01]),
                NASA([909.37, 5000.00],
                     [ 6.79120510E+00, -2.75483161E-03,  2.12546773E-06,
                      -4.16930504E-10,  2.67049548E-14, -3.23557043E+04,
                      -3.82725652E+01])))

species(name='CHOX2(61)',
        atoms='C:1 H:1 O:1 X:2',
        thermo=(NASA([298.00, 1000.00],
                     [-7.63229192E-02,  2.34818104E-02, -3.17556441E-05,
                       2.22347561E-08, -6.25650920E-12, -2.44241519E+04,
                      -1.42351290E+00]),
                NASA([1000.00, 2000.00],
                     [ 7.61171587E+00, -3.81051175E-03,  6.86938717E-06,
                      -3.71585312E-09,  6.73352174E-13, -2.62393600E+04,
                      -3.96330591E+01])))

species(name='HOCOX(62)',
        atoms='C:1 H:1 O:2 X:2',
        thermo=(NASA([100.00, 928.50],
                     [ 3.42443435E+00,  1.89181940E-03,  4.00590909E-05,
                      -5.96829478E-08,  2.46230115E-11, -4.01952291E+04,
                      -1.41627309E+01]),
                NASA([928.50, 5000.00],
                     [ 1.08186620E+01, -2.30690307E-03,  2.16359855E-06,
                      -3.94161774E-10,  2.18416337E-14, -4.27604461E+04,
                      -5.57066358E+01])))

species(name='CH2X(63)',
        atoms='C:1 H:2 X:1',
        thermo=(NASA([298.00, 1000.00],
                     [-2.26602367E+00,  2.92517765E-02, -4.32728797E-05,
                       3.30655723E-08, -9.93242641E-12, -2.23619445E+02,
                       8.22751288E+00]),
                NASA([1000.00, 2000.00],
                     [ 6.82572636E+00, -5.17192506E-03,  9.19551938E-06,
                      -4.87101486E-09,  8.67713091E-13, -2.26886621E+03,
                      -3.64410753E+01])))

species(name='SX(166)',
        atoms='C:3 H:5 O:3 X:1',
        thermo=(NASA([100.00, 1091.00],
                     [ 1.82233098E+00,  3.93832135E-02, -9.95404626E-06,
                      -1.24115181E-08,  6.45466398E-12, -6.31389573E+04,
                       5.16828644E+00]),
                NASA([1091.00, 5000.00],
                     [ 1.13026633E+01,  2.18676553E-02, -9.57887785E-06,
                       1.84539713E-09, -1.31728218E-13, -6.62337572E+04,
                      -4.60974978E+01])))

species(name='CHOX(175)',
        atoms='C:1 H:1 O:1 X:1',
        thermo=(NASA([298.00, 1000.00],
                     [ 8.63437744E-01,  2.14806054E-02, -3.00009525E-05,
                       2.11729011E-08, -5.90923491E-12, -3.09990999E+04,
                      -5.10749731E+00]),
                NASA([1000.00, 2000.00],
                     [ 7.59479056E+00, -3.06847382E-03,  5.43592647E-06,
                      -2.86463560E-09,  5.09149225E-13, -3.25424988E+04,
                      -3.83674793E+01])))

species(name='CH2OX(176)',
        atoms='C:1 H:2 O:1 X:1',
        thermo=(NASA([298.00, 1000.00],
                     [ 4.68649725E-01,  2.04972050E-02, -1.85506813E-05,
                       8.22998468E-09, -1.23251062E-12, -2.63024443E+04,
                      -9.21769145E-01]),
                NASA([1000.00, 2000.00],
                     [ 9.39449002E+00, -6.56375678E-03,  1.17141780E-05,
                      -6.25387815E-09,  1.12161443E-12, -2.86359494E+04,
                      -4.64113344E+01])))

species(name='SX(197)',
        atoms='C:2 H:3 O:1 X:1',
        thermo=(NASA([100.00, 959.41],
                     [ 3.43716970E+00,  5.75787653E-03,  2.83340578E-05,
                      -3.94573831E-08,  1.51208124E-11, -2.27458589E+04,
                      -8.72714024E+00]),
                NASA([959.41, 5000.00],
                     [ 6.61783976E+00,  9.20333655E-03, -3.17283386E-06,
                       5.86105547E-10, -4.31700926E-14, -2.41250501E+04,
                      -2.79472916E+01])))

species(name='SX(199)',
        atoms='C:2 H:3 O:2 X:1',
        thermo=(NASA([100.00, 947.39],
                     [ 2.59772732E+00,  1.62201392E-02,  3.59954598E-05,
                      -6.61844110E-08,  2.83136685E-11, -4.15360304E+04,
                      -4.10971762E+00]),
                NASA([947.39, 5000.00],
                     [ 1.47988778E+01,  1.66452666E-03,  5.23675879E-07,
                      -4.50161773E-11, -5.69422451E-15, -4.55065039E+04,
                      -7.10674809E+01])))

species(name='SX(222)',
        atoms='C:2 H:5 O:2 X:1',
        thermo=(NASA([100.00, 1013.50],
                     [ 1.88054045E+00,  4.63441359E-02, -5.23520018E-05,
                       3.15694682E-08, -7.59609022E-12, -4.61490712E+04,
                      -5.70695306E+00]),
                NASA([1013.50, 5000.00],
                     [ 9.81915839E+00,  1.50125461E-02, -5.98049261E-06,
                       1.06682246E-09, -7.19815496E-14, -4.77582242E+04,
                      -4.41126264E+01])))

species(name='SX(403)',
        atoms='C:2 H:3 O:2 X:1',
        thermo=(NASA([100.00, 956.98],
                     [ 2.64413442E+00,  1.62546240E-02,  3.42837802E-05,
                      -6.15514808E-08,  2.58294439E-11, -4.57464156E+04,
                      -7.00245052E+00]),
                NASA([956.98, 5000.00],
                     [ 1.35184380E+01,  4.82597603E-03, -1.13332308E-06,
                       2.73825525E-10, -2.74624109E-14, -4.93856720E+04,
                      -6.71265205E+01])))

species(name='SX(438)',
        atoms='C:2 H:2 O:1 X:1',
        thermo=(NASA([100.00, 927.44],