units(length='cm', time='s', quantity='mol', act_energy='kcal/mol')

ideal_gas(name='gas',
          elements="H D T C Ci O Oi N Ne Ar He Si S F Cl Br I X",
          species="""N2          Ne          H2(2)       CO(3)
                     CO2(4)      H2O(5)      CH2O(6)     HCOOH(7)
                     CH3OH(8)    HCOOCH3(9)  CH4(24)""",
          reactions='gas-*',
          transport='Mix',
          initial_state=state(temperature=300.0, pressure=OneAtm))

ideal_interface(name='surface1',
                elements="H D T C Ci O Oi N Ne Ar He Si S F Cl Br I X",
                species="""X(1)        H*(10)      O*(11)      OH*(12)
                          H2O*(13)    CO*(14)     CO2*(15)    HCO*(16)
                          HCOO*(17)   COOH*(18)   HCOOH*(19)  CH2O*(20)
                          CH3O*(21)   CH3O2*(22)  CH3OH*(23)  CH3X(35)
                          CH3OX(49)   H2X(53)     CH2OX2(55)  SX(56)
                          SX(58)      SX(62)      COXX(63)    CHOX2(64)
                          HOCOXX(65)  CH4X(66)    SX(206)     SX(213)
                          SX(225)     SX(249)     SX(351)     SX(387)
                          SX(421)     SX(440)     SX(870)     SX(1035)""",
                site_density=2.943e-09,
                phases="gas",
          reactions='surface1-*',
                initial_state=state(temperature=300.0, pressure=OneAtm))

#-------------------------------------------------------------------------------
# Element data
#-------------------------------------------------------------------------------

element(symbol='Ci', atomic_mass=13.003)
element(symbol='D', atomic_mass=2.014)
element(symbol='Oi', atomic_mass=17.999)
element(symbol='T', atomic_mass=3.016)
element(symbol='X', atomic_mass=195.083)
#-------------------------------------------------------------------------------
# Species data
#-------------------------------------------------------------------------------

species(name='N2',
        atoms='N:2',
        thermo=(NASA([200.00, 1000.00],
                     [ 3.53101000E+00, -1.23661000E-04, -5.02999000E-07,
                       2.43531000E-09, -1.40881000E-12, -1.04698000E+03,
                       2.96747000E+00]),
                NASA([1000.00, 6000.00],
                     [ 2.95258000E+00,  1.39690000E-03, -4.92632000E-07,
                       7.86010000E-11, -4.60755000E-15, -9.23949000E+02,
                       5.87189000E+00])),
        transport=gas_transport(geom='linear',
                                diam=3.621,
                                well_depth=97.53,
                                polar=1.76,
                                rot_relax=4.0))

species(name='Ne',
        atoms='Ne:1',
        thermo=(NASA([200.00, 1000.00],
                     [ 2.50000000E+00,  0.00000000E+00,  0.00000000E+00,
                       0.00000000E+00,  0.00000000E+00, -7.45375000E+02,
                       3.35532000E+00]),
                NASA([1000.00, 6000.00],
                     [ 2.50000000E+00,  0.00000000E+00,  0.00000000E+00,
                       0.00000000E+00,  0.00000000E+00, -7.45375000E+02,
                       3.35532000E+00])),
        transport=gas_transport(geom='atom',
                                diam=3.758,
                                well_depth=148.6))

species(name='H2(2)',
        atoms='H:2',
        thermo=(NASA([100.00, 1959.08],
                     [ 3.43536412E+00,  2.12710353E-04, -2.78625043E-07,
                       3.40267167E-10, -7.76031998E-14, -1.03135984E+03,
                      -3.90841732E+00]),
                NASA([1959.08, 5000.00],
                     [ 2.78816583E+00,  5.87640942E-04,  1.59010417E-07,
                      -5.52739026E-11,  4.34310984E-15, -5.96144270E+02,
                       1.12732655E-01])),
        transport=gas_transport(geom='linear',
                                diam=2.92,
                                well_depth=38.0,
                                polar=0.79,
                                rot_relax=280.0))

species(name='CO(3)',
        atoms='C:1 O:1',
        thermo=(NASA([100.00, 1571.63],
                     [ 3.56838038E+00, -8.52129500E-04,  2.48918819E-06,
                      -1.56331996E-09,  3.13598127E-13, -1.42842550E+04,
                       3.57912028E+00]),
                NASA([1571.63, 5000.00],
                     [ 2.91305202E+00,  1.64659937E-03, -6.88625686E-07,
                       1.21039677E-10, -7.84035796E-15, -1.41808768E+04,
                       6.71054299E+00])),
        transport=gas_transport(geom='linear',
                                diam=3.65,
                                well_depth=98.1,
                                polar=1.95,
                                rot_relax=1.8))

species(name='CO2(4)',
        atoms='C:1 O:2',
        thermo=(NASA([100.00, 978.21],
                     [ 3.28084634E+00,  2.50183460E-03,  8.08199998E-06,
                      -1.20511416E-08,  4.66547255E-12, -4.84008304E+04,
                       6.00080795E+00]),
                NASA([978.21, 5000.00],
                     [ 4.67426743E+00,  2.60964031E-03, -9.85689857E-07,
                       1.95713857E-10, -1.49836245E-14, -4.89512140E+04,
                      -2.11073617E+00])),
        transport=gas_transport(geom='linear',
                                diam=3.763,
                                well_depth=244.001,
                                polar=2.65,
                                rot_relax=2.1))

species(name='H2O(5)',
        atoms='H:2 O:1',
        thermo=(NASA([100.00, 1130.24],
                     [ 4.05763610E+00, -7.87938871E-04,  2.90878480E-06,
                      -1.47520039E-09,  2.12847506E-13, -3.02815866E+04,
                      -3.11365027E-01]),
                NASA([1130.24, 5000.00],
                     [ 2.84324866E+00,  2.75108838E-03, -7.81033120E-07,
                       1.07244016E-10, -5.79395308E-15, -2.99586120E+04,
                       5.91043011E+00])),
        transport=gas_transport(geom='nonlinear',
                                diam=2.605,
                                well_depth=572.402,
                                dipole=1.844,
                                rot_relax=4.0))

species(name='CH2O(6)',
        atoms='C:1 H:2 O:1',
        thermo=(NASA([100.00, 1070.44],
                     [ 4.12927802E+00, -4.08401318E-03,  2.03229341E-05,
                      -1.83524244E-08,  5.37975522E-12, -1.44294640E+04,
                       3.22418463E+00]),
                NASA([1070.44, 5000.00],
                     [ 2.21172442E+00,  7.94265679E-03, -3.34193053E-06,
                       6.28471401E-10, -4.40431446E-14, -1.42974456E+04,
                       1.13048985E+01])),
        transport=gas_transport(geom='nonlinear',
                                diam=3.59,
                                well_depth=498.002,
                                rot_relax=2.0))

species(name='HCOOH(7)',
        atoms='C:1 H:2 O:2',
        thermo=(NASA([100.00, 993.73],
                     [ 3.76241335E+00, -9.43947850E-04,  3.38781957E-05,
                      -4.04987780E-08,  1.43988412E-11, -4.68212105E+04,
                       7.63273333E+00]),
                NASA([993.73, 5000.00],
                     [ 5.64497050E+00,  7.55187503E-03, -3.20854541E-06,
                       6.58926362E-10, -5.05061286E-14, -4.79889887E+04,
                      -5.43086107E+00])),
        transport=gas_transport(geom='nonlinear',
                                diam=3.626,
                                well_depth=481.8,
                                dipole=1.7,
                                rot_relax=1.0))

species(name='CH3OH(8)',
        atoms='C:1 H:4 O:1',
        thermo=(NASA([100.00, 1035.75],
                     [ 3.84006214E+00,  1.38241998E-03,  1.91667191E-05,
                      -2.01568660E-08,  6.39102259E-12, -2.56083087E+04,
                       5.90978137E+00]),
                NASA([1035.75, 5000.00],
                     [ 2.79184298E+00,  1.15827852E-02, -4.51551928E-06,
                       8.21206706E-10, -5.67063250E-14, -2.57211674E+04,
                       9.41061586E+00])),
        transport=gas_transport(geom='nonlinear',
                                diam=3.626,
                                well_depth=481.802,
                                rot_relax=1.0))

species(name='HCOOCH3(9)',
        atoms='C:2 H:4 O:2',
        thermo=(NASA([100.00, 1141.77],
                     [ 3.28123251E+00,  1.13180591E-02,  1.84477587E-05,
                      -2.41945197E-08,  7.75136395E-12, -4.46725565E+04,
                       1.20363735E+01]),
                NASA([1141.77, 5000.00],
                     [ 4.90989100E+00,  1.87529727E-02, -8.58328635E-06,
                       1.66847339E-09, -1.18612079E-13, -4.59010044E+04,
                       2.12202036E-01])),
        transport=gas_transport(geom='nonlinear',
                                diam=5.234,
                                well_depth=377.356))

species(name='CH4(24)',
        atoms='C:1 H:4',
        thermo=(NASA([100.00, 1084.12],
                     [ 4.20541524E+00, -5.35557362E-03,  2.51123265E-05,
                      -2.13762843E-08,  5.97523937E-12, -1.01619433E+04,
                      -9.21279283E-01]),
                NASA([1084.12, 5000.00],
                     [ 9.08265721E-01,  1.14540858E-02, -4.57173828E-06,
                       8.29191671E-10, -5.66314895E-14, -9.71997444E+03,
                       1.39930944E+01])),
        transport=gas_transport(geom='nonlinear',
                                diam=3.746,
                                well_depth=141.4,
                                polar=2.6,
                                rot_relax=13.0))

species(name='X(1)',
        atoms='X:1',
        thermo=(NASA([100.00, 1554.80],
                     [ 7.10139498E-03, -4.25619522E-05,  8.98533016E-08,
                      -7.80193649E-11,  2.32465471E-14, -8.76101712E-01,
                      -3.11211229E-02]),
                NASA([1554.80, 5000.00],
                     [ 1.60299900E-01, -2.52235409E-04,  1.14181275E-07,
                      -1.21471653E-11,  3.85790025E-16, -7.08100885E+01,
                      -9.09527530E-01])))

species(name='H*(10)',
        atoms='H:1 X:1',
        thermo=(NASA([100.00, 952.91],
                     [-3.80965452E-01,  5.47228709E-03,  2.60912778E-06,
                      -9.64961980E-09,  4.63946753E-12, -1.40559768E+03,
                       1.01725550E+00]),
                NASA([952.91, 5000.00],
                     [ 2.80339655E+00, -5.41047017E-04,  4.99507978E-07,
                      -7.54963647E-11,  3.06772366E-15, -2.34634710E+03,
                      -1.59436787E+01])))

species(name='O*(11)',
        atoms='O:1 X:1',
        thermo=(NASA([100.00, 888.26],
                     [-7.59007329E-01,  1.89867771E-02, -3.82470955E-05,
                       3.43554391E-08, -1.13972478E-11, -2.18355966E+04,
                       1.76015370E+00]),
                NASA([888.26, 5000.00],
                     [ 1.89892178E+00,  2.03297975E-03, -1.19978087E-06,
                       2.32684304E-10, -1.53511352E-14, -2.21111366E+04,
                      -9.64096026E+00])))

species(name='OH*(12)',
        atoms='H:1 O:1 X:1',
        thermo=(NASA([100.00, 914.58],
                     [-1.29513706E+00,  3.36476246E-02, -7.07717851E-05,
                       6.54315116E-08, -2.19410183E-11, -2.16453848E+04,
                       4.37624874E+00]),
                NASA([914.58, 5000.00],
                     [ 2.43515780E+00,  4.64644986E-03, -2.40014139E-06,
                       4.26415498E-10, -2.60661215E-14, -2.17971347E+04,
                      -1.03865094E+01])))

species(name='H2O*(13)',
        atoms='H:2 O:1 X:1',
        thermo=(NASA([100.00, 912.85],
                     [-1.34340138E+00,  3.66695539E-02, -7.99480721E-05,
                       7.74125241E-08, -2.68665364E-11, -3.23490305E+04,
                       1.10237667E+01]),
                NASA([912.85, 5000.00],
                     [ 1.12158920E+00,  8.16639256E-03, -4.02358034E-06,
                       7.20420773E-10, -4.51442235E-14, -3.20615235E+04,
                       3.39615620E+00])))

species(name='CO*(14)',
        atoms='C:1 O:1 X:1',
        thermo=(NASA([100.00, 891.33],
                     [-1.38214670E+00,  3.75306103E-02, -8.29761135E-05,
                       8.09705358E-08, -2.85472623E-11, -2.25369687E+04,
                       4.35449609E+00]),
                NASA([891.33, 5000.00],
                     [ 1.38092053E+00,  8.05716548E-03, -4.64307501E-06,
                       8.91167184E-10, -5.90045403E-14, -2.23513002E+04,
                      -4.85325804E+00])))

species(name='CO2*(15)',
        atoms='C:1 O:2 X:1',
        thermo=(NASA([100.00, 882.27],
                     [-1.54695039E+00,  4.08808711E-02, -8.54317962E-05,
                       8.20011718E-08, -2.88130542E-11, -4.74892339E+04,
                       1.37825076E+01]),
                NASA([882.27, 5000.00],
                     [ 1.80884506E+00,  9.73006926E-03, -5.37611978E-06,
                       1.03588570E-09, -6.95109140E-14, -4.74611278E+04,
                       1.52814039E+00])))

species(name='HCO*(16)',
        atoms='C:1 H:1 O:1 X:1',
        thermo=(NASA([100.00, 873.22],
                     [-1.43679537E+00,  3.69243480E-02, -7.17904167E-05,
                       6.73532499E-08, -2.35178167E-11, -2.16948208E+04,
                       8.27561789E+00]),
                NASA([873.22, 5000.00],
                     [ 1.83280181E+00,  1.00778749E-02, -5.28533237E-06,
                       1.01351974E-09, -6.85184058E-14, -2.18133111E+04,
                      -4.46392059E+00])))

species(name='HCOO*(17)',
        atoms='C:1 H:1 O:2 X:1',
        thermo=(NASA([100.00, 833.19],
                     [-1.79151263E+00,  4.37074792E-02, -7.60380780E-05,
                       6.72502713E-08, -2.29579212E-11, -4.81907102E+04,
                       7.22945790E+00]),
                NASA([833.19, 5000.00],
                     [ 3.32781731E+00,  1.20450020E-02, -6.27970057E-06,
                       1.22725729E-09, -8.50498977E-14, -4.87978481E+04,
                      -1.50582248E+01])))

species(name='COOH*(18)',
        atoms='C:1 H:1 O:2 X:1',
        thermo=(NASA([100.00, 816.30],
                     [-1.63418287E+00,  3.88302671E-02, -6.42988766E-05,
                       5.38357138E-08, -1.75469491E-11, -4.63557116E+04,
                       1.22626308E+01]),
                NASA([816.30, 5000.00],
                     [ 3.87900949E+00,  9.05736380E-03, -4.52248599E-06,
                       8.78597786E-10, -6.09456909E-14, -4.71639278E+04,
                      -1.26535941E+01])))

species(name='HCOOH*(19)',
        atoms='C:1 H:2 O:2 X:1',
        thermo=(NASA([100.00, 950.51],
                     [ 3.66942277E+00, -3.78107024E-03,  5.53417866E-05,
                      -7.04158319E-08,  2.67783312E-11, -5.31190939E+04,
                      -8.38223347E+00]),
                NASA([950.51, 5000.00],
                     [ 8.66767333E+00,  3.45619294E-03, -6.94093723E-07,
                       1.78231295E-10, -1.93189703E-14, -5.53463836E+04,
                      -3.89602390E+01])))

species(name='CH2O*(20)',
        atoms='C:1 H:2 O:1 X:1',
        thermo=(NASA([100.00, 879.32],
                     [-1.46696967E+00,  4.13871743E-02, -8.87616535E-05,
                       9.10110992E-08, -3.36607081E-11, -2.03002411E+04,
                       1.57178332E+01]),
                NASA([879.32, 5000.00],
                     [-8.92927768E-01,  1.66196503E-02, -8.71596166E-06,
                       1.66816675E-09, -1.12503958E-13, -1.95446346E+04,
                       1.78928299E+01])))

species(name='CH3O*(21)',
        atoms='C:1 H:3 O:1 X:1',
        thermo=(NASA([100.00, 857.67],
                     [-1.68419050E+00,  4.28019546E-02, -7.50767196E-05,
                       7.03658026E-08, -2.50908186E-11, -2.23137068E+04,
                       7.76412161E+00]),
                NASA([857.67, 5000.00],
                     [ 1.14786899E+00,  1.71346045E-02, -8.39649029E-06,
                       1.59810518E-09, -1.08977854E-13, -2.23412489E+04,
                      -2.79262277E+00])))

species(name='CH3O2*(22)',
        atoms='C:1 H:3 O:2 X:1',
        thermo=(NASA([100.00, 932.26],
                     [ 3.21916271E+00,  6.71721821E-03,  3.72271942E-05,
                      -5.73634070E-08,  2.36261155E-11, -4.74893741E+04,
                      -6.14518402E+00]),
                NASA([932.26, 5000.00],
                     [ 1.03102378E+01,  3.04296758E-03,  9.70761635E-08,
                      -3.19266012E-11, -2.13473240E-15, -4.99740066E+04,
                      -4.60928875E+01])))

species(name='CH3OH*(23)',
        atoms='C:1 H:4 O:1 X:1',
        thermo=(NASA([100.00, 850.41],
                     [-1.64009981E+00,  4.09976611E-02, -6.66166227E-05,
                       6.12112419E-08, -2.17734200E-11, -3.05087359E+04,
                       1.38245399E+01]),
                NASA([850.41, 5000.00],
                     [ 1.01837261E+00,  1.82966199E-02, -8.58976461E-06,
                       1.62231337E-09, -1.10732500E-13, -3.05921894E+04,
                       3.59753323E+00])))

species(name='CH3X(35)',
        atoms='C:1 H:3 X:1',
        thermo=(NASA([100.00, 848.30],
                     [-1.21090496E+00,  2.92390681E-02, -4.49011079E-05,
                       3.86009808E-08, -1.30361041E-11, -1.29905692E+02,
                       6.80939750E+00]),
                NASA([848.30, 5000.00],
                     [ 1.62290877E+00,  1.12987268E-02, -5.08316908E-06,
                       9.46833581E-10, -6.42885536E-14, -4.45970597E+02,
                      -5.42501059E+00])))

species(name='CH3OX(49)',
        atoms='C:1 H:3 O:1 X:1',
        thermo=(NASA([100.00, 813.94],
                     [-1.68232083E+00,  3.97249389E-02, -5.96107529E-05,
                       4.86920970E-08, -1.58049204E-11, -2.91607536E+04,
                       8.26687835E+00]),
                NASA([813.94, 5000.00],
                     [ 3.25579221E+00,  1.30434803E-02, -5.99158702E-06,
                       1.13138422E-09, -7.77149614E-14, -2.98846627E+04,
                      -1.40488937E+01])))

species(name='H2X(53)',
        atoms='H:2 X:1',
        thermo=(NASA([100.00, 911.33],
                     [-1.27856724E+00,  3.68010102E-02, -8.90296992E-05,
                       8.91132730E-08, -3.14511582E-11, -1.63561853E+03,
                       1.13160562E+01]),
                NASA([911.33, 5000.00],
                     [ 6.45631937E-01,  6.69563800E-03, -3.82690860E-06,
                       7.04725296E-10, -4.41024465E-14, -1.08689851E+03,
                       7.14633349E+00])))

species(name='CH2OX2(55)',
        atoms='C:1 H:2 O:1 X:2',
        thermo=(NASA([100.00, 777.56],
                     [-1.44645549E+00,  3.42803139E-02, -5.09483795E-05,
                       4.03732306E-08, -1.27356452E-11, -1.75584748E+04,
                       6.09156343E+00]),
                NASA([777.56, 5000.00],
                     [ 3.18259452E+00,  1.04657053E-02, -5.00464545E-06,
                       9.79545329E-10, -6.90993489E-14, -1.82783054E+04,
                      -1.50760119E+01])),
        size=2.0)

species(name='SX(56)',
        atoms='C:1 H:2 O:2 X:2',
        thermo=(NASA([100.00, 947.22],
                     [ 3.60813223E+00, -4.01764498E-03,  6.20550300E-05,
                      -7.98278285E-08,  3.05870174E-11, -7.18994466E+04,
                      -1.46162600E+01]),
                NASA([947.22, 5000.00],
                     [ 9.56952207E+00,  3.11009633E-03, -3.85433283E-07,
                       1.21094514E-10, -1.61051783E-14, -7.44778980E+04,
                      -5.07025253E+01])),
        size=2.0)

species(name='SX(58)',
        atoms='C:2 H:4 O:2 X:2',
        thermo=(NASA([100.00, 992.51],
                     [ 3.12546236E+00,  8.35290631E-03,  4.57804099E-05,
                      -6.16886880E-08,  2.28051689E-11, -6.97508061E+04,
                      -1.02129489E+01]),
                NASA([992.51, 5000.00],
                     [ 8.25423559E+00,  1.52384608E-02, -6.27111488E-06,
                       1.24730629E-09, -9.36401801E-14, -7.21260851E+04,
                      -4.17550138E+01])),
        size=2.0)

species(name='SX(62)',
        atoms='C:2 H:4 O:2 X:1',
        thermo=(NASA([100.00, 1142.81],
                     [ 3.04335899E+00,  1.62172555E-02,  1.11799133E-05,
                      -1.94488502E-08,  6.60348673E-12, -5.03446083E+04,
                      -2.29309471E+00]),
                NASA([1142.81, 5000.00],
                     [ 5.95923181E+00,  1.85914931E-02, -8.44872573E-06,
                       1.63431312E-09, -1.15889265E-13, -5.18325576E+04,
                      -2.03439221E+01])))

species(name='COXX(63)',
        atoms='C:1 O:1 X:2',
        thermo=(NASA([100.00, 907.87],
                     [ 3.29372067E+00, -4.90378414E-04,  2.06006428E-05,
                      -3.00789913E-08,  1.25812714E-11, -2.15289700E+04,
                      -1.73754190E+01]),
                NASA([907.87, 5000.00],
                     [ 6.63753248E+00, -2.14183851E-03,  1.71636916E-06,
                      -3.41157443E-10,  2.20436941E-14, -2.26752093E+04,
                      -3.61531684E+01])),
        size=2.0)

species(name='CHOX2(64)',
        atoms='C:1 H:1 O:1 X:2',
        thermo=(NASA([100.00, 689.33],
                     [-1.32716780E+00,  3.17587333E-02, -5.05065871E-05,
                       3.95520303E-08, -1.17505741E-11, -1.46027549E+04,
                       3.92679635E+00]),
                NASA([689.33, 5000.00],
                     [ 3.47343833E+00,  7.03348332E-03, -3.51779073E-06,
                       6.98047945E-10, -4.93382204E-14, -1.53389937E+04,
                      -1.79870016E+01])),
        size=2.0)

species(name='HOCOXX(65)',
        atoms='C:1 H:1 O:2 X:2',
        thermo=(NASA([100.00, 928.50],
                     [ 3.42443435E+00,  1.89181940E-03,  4.00590909E-05,
                      -5.96829478E-08,  2.46230115E-11, -4.24844975E+04,
                      -1.41627309E+01]),
                NASA([928.50, 5000.00],
                     [ 1.08186620E+01, -2.30690307E-03,  2.16359855E-06,
                      -3.94161774E-10,  2.18416337E-14, -4.50497145E+04,
                      -5.57066358E+01])),
        size=2.0)

species(name='CH4X(66)',
        atoms='C:1 H:4 X:1',
        thermo=(NASA([100.00, 886.29],
                     [-1.38687449E+00,  4.00450548E-02, -8.37917184E-05,
                       8.75651042E-08, -3.27875900E-11, -1.09112184E+04,
                       1.78811047E+01]),
                NASA([886.29, 5000.00],
                     [-2.16847811E+00,  1.99494198E-02, -9.80013650E-06,
                       1.83536669E-09, -1.22521982E-13, -9.84485611E+03,
                       2.67918007E+01])))

species(name='SX(206)',
        atoms='C:2 H:1 O:2 X:1',
        thermo=(NASA([100.00, 981.03],
                     [ 3.01572407E+00,  1.71205898E-02, -2.83097816E-06,
                      -1.01836241E-08,  5.46209712E-12, -3.52389681E+04,
                      -6.82999572E+00]),
                NASA([981.03, 5000.00],
                     [ 8.24300510E+00,  6.32384921E-03, -2.40285822E-06,
                       4.52881809E-10, -3.31445613E-14, -3.67706640E+04,
                      -3.45277852E+01])))

species(name='SX(213)',
        atoms='C:2 H:3 O:2 X:1',
        thermo=(NASA([100.00, 947.39],
                     [ 2.59772732E+00,  1.62201392E-02,  3.59954598E-05,
                      -6.61844110E-08,  2.83136685E-11, -4.75172924E+04,
                      -4.10971762E+00]),
                NASA([947.39, 5000.00],
                     [ 1.47988778E+01,  1.66452666E-03,  5.23675879E-07,
                      -4.50161773E-11, -5.69422451E-15, -5.14877660E+04,
                      -7.10674809E+01])))

species(name='SX(225)',
        atoms='C:2 H:4 O:1 X:1',
        thermo=(NASA([100.00, 1258.42],
                     [ 3.23905309E+00,  1.45283658E-02,  5.08984756E-07,
                      -5.82821072E-09,  1.98753156E-12, -2.27339210E+04,
                       5.45572664E+00]),
                NASA([1258.42, 5000.00],
                     [ 4.93026320E+00,  1.46082110E-02, -6.08902770E-06,
                       1.11217769E-09, -7.56507660E-14, -2.35915420E+04,
                      -4.80844635E+00])))

species(name='SX(249)',
        atoms='C:2 H:5 O:1 X:1',
        thermo=(NASA([100.00, 1474.10],
                     [ 2.75804460E+00,  2.41831269E-02, -1.14989782E-05,
                       1.90006549E-09,  6.10869651E-14, -2.74653255E+04,
                      -9.22426704E+00]),
                NASA([1474.10, 5000.00],
                     [ 7.25831629E+00,  1.54480335E-02, -6.14797454E-06,
                       1.07993191E-09, -7.11533752E-14, -2.91698106E+04,
                      -3.39629678E+01])))

species(name='SX(351)',
        atoms='C:2 H:4 O:1 X:2',
        thermo=(NASA([100.00, 948.28],
                     [ 3.23935026E+00,  7.41751987E-03,  3.75944764E-05,
                      -5.41311884E-08,  2.12807486E-11, -2.52675569E+04,
                      -1.10767989E+01]),
                NASA([948.28, 5000.00],
                     [ 8.35894440E+00,  9.40135044E-03, -2.84132045E-06,
                       5.17641664E-10, -3.94896970E-14, -2.72986757E+04,
                      -4.10939006E+01])),
        size=2.0)

species(name='SX(387)',
        atoms='C:2 H:2 O:2 X:2',
        thermo=(NASA([100.00, 951.16],
                     [ 2.81148115E+00,  1.36531307E-02,  3.08545997E-05,
                      -5.62015355E-08,  2.39170086E-11, -4.23409642E+04,
                      -4.10094511E+00]),
                NASA([951.16, 5000.00],
                     [ 1.32091556E+01,  1.44584816E-03,  4.00098628E-07,
                      -1.77573958E-11, -6.85385701E-15, -4.57447199E+04,
                      -6.12380141E+01])),
        size=2.0)

species(name='SX(421)',
        atoms='C:3 H:2 O:2 X:2',
        thermo=(NASA([100.00, 901.49],
                     [ 1.76098096E+00,  5.42994271E-02, -9.40223923E-05,
                       8.05241195E-08, -2.60711045E-11, -4.65649039E+04,
                      -1.94978839E+00]),
                NASA([901.49, 5000.00],
                     [ 8.46814322E+00,  1.29279273E-02, -5.86394808E-06,
                       1.04213769E-09, -6.71227164E-14, -4.73023806E+04,
                      -3.09955554E+01])),
        size=2.0)

species(name='SX(440)',
        atoms='C:3 H:2 O:2 X:3',
        thermo=(NASA([100.00, 709.11],
                     [ 1.92053318E+00,  4.84070189E-02, -6.94054672E-05,
                       4.69643014E-08, -1.10093902E-11, -3.94755137E+04,
                      -6.47359955E+00]),
                NASA([709.11, 5000.00],
                     [ 1.00973268E+01,  9.90479292E-03, -4.08352688E-06,
                       7.09819149E-10, -4.59882466E-14, -4.08267976E+04,
                      -4.44623975E+01])),
        size=3.0)

species(name='SX(870)',
        atoms='C:2 H:5 O:1 X:1',
        thermo=(NASA([100.00, 977.79],
                     [ 3.02509182E+00,  1.44943842E-02,  2.01657492E-05,
                      -3.41812476E-08,  1.34836434E-11, -3.46197153E+04,
                      -8.59264429E+00]),
                NASA([977.79, 5000.00],
                     [ 7.34629683E+00,  1.39045986E-02, -5.14335212E-06,
                       9.47746932E-10, -6.78684500E-14, -3.62816078E+04,
                      -3.35199228E+01])))

species(name='SX(1035)',
        atoms='C:3 H:5 O:2 X:1',
        thermo=(NASA([100.00, 946.80],
                     [ 2.06354852E+00,  3.13485503E-02,  8.69434438E-06,
                      -3.89501358E-08,  1.86308259E-11, -5.17596813E+04,
                       3.13622881E+00]),
                NASA([946.80, 5000.00],
                     [ 1.35656702E+01,  1.07506751E-02, -3.02570474E-06,
                       5.32067306E-10, -4.04252750E-14, -5.51925469E+04,
                      -5.83526993E+01])))

#-------------------------------------------------------------------------------
# Reaction data
#-------------------------------------------------------------------------------

# Reaction 1
reaction('H2(2) + CO(3) <=> CH2O(6)', [2.890000e+09, 1.16, 82.1],
         id='gas-1')

# Reaction 2
reaction('H2O(5) + CO(3) <=> HCOOH(7)', [2.540000e-01, 3.7, 53.36],
         id='gas-2')

# Reaction 3
reaction('H2(2) + CO2(4) <=> HCOOH(7)', [1.510000e+09, 1.23, 73.9],
         id='gas-3',
         options='duplicate')

# Reaction 4
reaction('CO(3) + CH3OH(8) <=> HCOOCH3(9)', [1.270000e-01, 3.7, 53.36],
         id='gas-4')

# Reaction 5
reaction('CO2(4) + CH4(24) <=> HCOOCH3(9)', [3.624000e+04, 2.83, 79.2],
         id='gas-5')

# Reaction 6
reaction('H2(2) + CO2(4) <=> HCOOH(7)', [1.510000e+09, 1.23, 73.9],
         id='gas-6',
         options='duplicate')

# Reaction 7
reaction('H2(2) + CO2(4) <=> HCOOH(7)', [1.510000e+09, 1.23, 73.9],
         id='gas-7',
         options='duplicate')

# surface1 Reaction 1
surface_reaction('X(1) + X(1) + H2(2) <=> H*(10) + H*(10)', stick(3.200000e-02, 0.0, 0.0),
                 id='surface1-1')

# surface1 Reaction 2
surface_reaction('X(1) + OH*(12) <=> O*(11) + H*(10)',
                 Arrhenius(7.390000e+19, 0.0, 18.475,
                           coverage=[['O*(11)', 0.0, 0.0, -17.5]]),
                 id='surface1-2')

# surface1 Reaction 3
surface_reaction('X(1) + H2O(5) <=> H2O*(13)', stick(7.500000e-01, 0.0, 0.0),
                 id='surface1-3')

# surface1 Reaction 4
surface_reaction('X(1) + H2O*(13) <=> H*(10) + OH*(12)',