units(length='cm', time='s', quantity='mol', act_energy='kcal/mol')

ideal_gas(name='gas',
          elements="H D T C Ci O Oi N Ne Ar He Si S F Cl Br I X",
          species="""N2          Ne          H2(2)       CO(3)
                     CO2(4)      H2O(5)      CH2O(6)     HCOOH(7)
                     CH3OH(8)    HCOOCH3(9)  H(23)       HCO(31)
                     CH4(39)     CH4O2(169)  C2H4O(229)  C2H6O(234)
                     OCHCO(260)""",
          reactions='gas-*',
          transport='Mix',
          initial_state=state(temperature=300.0, pressure=OneAtm))

ideal_interface(name='surface1',
                elements="H D T C Ci O Oi N Ne Ar He Si S F Cl Br I X",
                species="""X(1)        H*(10)      O*(11)      OH*(12)
                          H2O*(13)    CO*(14)     CO2*(15)    HCO*(16)
                          HCOO*(17)   COOH*(18)   CH2O*(19)   CH3O*(20)
                          CH3O2*(21)  CH3OH*(22)  CH3OX(44)   CH3O2X(47)
                          H2X(48)     CH2O2X(49)  CH3X(50)    CHOX(166)
                          CH2OX(167)  SX(186)     CH4X(236)   SX(257)
                          SX(408)     SX(419)     SX(460)     SX(525)
                          SX(631)     C2HOX(645)""",
                site_density=2.943e-09,
                phases="gas",
          reactions='surface1-*',
                initial_state=state(temperature=300.0, pressure=OneAtm))

#-------------------------------------------------------------------------------
# Element data
#-------------------------------------------------------------------------------

element(symbol='Ci', atomic_mass=13.003)
element(symbol='D', atomic_mass=2.014)
element(symbol='Oi', atomic_mass=18.0)
element(symbol='T', atomic_mass=3.016)
element(symbol='X', atomic_mass=195.083)
#-------------------------------------------------------------------------------
# Species data
#-------------------------------------------------------------------------------

species(name='N2',
        atoms='N:2',
        thermo=(NASA([200.00, 1000.00],
                     [ 3.53101000E+00, -1.23661000E-04, -5.02999000E-07,
                       2.43531000E-09, -1.40881000E-12, -1.04698000E+03,
                       2.96747000E+00]),
                NASA([1000.00, 6000.00],
                     [ 2.95258000E+00,  1.39690000E-03, -4.92632000E-07,
                       7.86010000E-11, -4.60755000E-15, -9.23949000E+02,
                       5.87189000E+00])),
        transport=gas_transport(geom='linear',
                                diam=3.621,
                                well_depth=97.53,
                                polar=1.76,
                                rot_relax=4.0))

species(name='Ne',
        atoms='Ne:1',
        thermo=(NASA([200.00, 1000.00],
                     [ 2.50000000E+00,  0.00000000E+00,  0.00000000E+00,
                       0.00000000E+00,  0.00000000E+00, -7.45375000E+02,
                       3.35532000E+00]),
                NASA([1000.00, 6000.00],
                     [ 2.50000000E+00,  0.00000000E+00,  0.00000000E+00,
                       0.00000000E+00,  0.00000000E+00, -7.45375000E+02,
                       3.35532000E+00])),
        transport=gas_transport(geom='atom',
                                diam=3.758,
                                well_depth=148.6))

species(name='H2(2)',
        atoms='H:2',
        thermo=(NASA([100.00, 1959.08],
                     [ 3.43536412E+00,  2.12710353E-04, -2.78625043E-07,
                       3.40267167E-10, -7.76031998E-14, -1.03135984E+03,
                      -3.90841732E+00]),
                NASA([1959.08, 5000.00],
                     [ 2.78816583E+00,  5.87640942E-04,  1.59010417E-07,
                      -5.52739026E-11,  4.34310984E-15, -5.96144270E+02,
                       1.12732655E-01])),
        transport=gas_transport(geom='linear',
                                diam=2.92,
                                well_depth=38.0,
                                polar=0.79,
                                rot_relax=280.0))

species(name='CO(3)',
        atoms='C:1 O:1',
        thermo=(NASA([100.00, 1571.63],
                     [ 3.56838038E+00, -8.52129500E-04,  2.48918819E-06,
                      -1.56331996E-09,  3.13598127E-13, -1.42842550E+04,
                       3.57912028E+00]),
                NASA([1571.63, 5000.00],
                     [ 2.91305202E+00,  1.64659937E-03, -6.88625686E-07,
                       1.21039677E-10, -7.84035796E-15, -1.41808768E+04,
                       6.71054299E+00])),
        transport=gas_transport(geom='linear',
                                diam=3.65,
                                well_depth=98.1,
                                polar=1.95,
                                rot_relax=1.8))

species(name='CO2(4)',
        atoms='C:1 O:2',
        thermo=(NASA([100.00, 978.21],
                     [ 3.28084634E+00,  2.50183460E-03,  8.08199998E-06,
                      -1.20511416E-08,  4.66547255E-12, -4.84008304E+04,
                       6.00080795E+00]),
                NASA([978.21, 5000.00],
                     [ 4.67426743E+00,  2.60964031E-03, -9.85689857E-07,
                       1.95713857E-10, -1.49836245E-14, -4.89512140E+04,
                      -2.11073617E+00])),
        transport=gas_transport(geom='linear',
                                diam=3.763,
                                well_depth=244.001,
                                polar=2.65,
                                rot_relax=2.1))

species(name='H2O(5)',
        atoms='H:2 O:1',
        thermo=(NASA([100.00, 1130.24],
                     [ 4.05763610E+00, -7.87938871E-04,  2.90878480E-06,
                      -1.47520039E-09,  2.12847506E-13, -3.02815866E+04,
                      -3.11365027E-01]),
                NASA([1130.24, 5000.00],
                     [ 2.84324866E+00,  2.75108838E-03, -7.81033120E-07,
                       1.07244016E-10, -5.79395308E-15, -2.99586120E+04,
                       5.91043011E+00])),
        transport=gas_transport(geom='nonlinear',
                                diam=2.605,
                                well_depth=572.402,
                                dipole=1.844,
                                rot_relax=4.0))

species(name='CH2O(6)',
        atoms='C:1 H:2 O:1',
        thermo=(NASA([100.00, 1070.44],
                     [ 4.12927802E+00, -4.08401318E-03,  2.03229341E-05,
                      -1.83524244E-08,  5.37975522E-12, -1.44294640E+04,
                       3.22418463E+00]),
                NASA([1070.44, 5000.00],
                     [ 2.21172442E+00,  7.94265679E-03, -3.34193053E-06,
                       6.28471401E-10, -4.40431446E-14, -1.42974456E+04,
                       1.13048985E+01])),
        transport=gas_transport(geom='nonlinear',
                                diam=3.59,
                                well_depth=498.002,
                                rot_relax=2.0))

species(name='HCOOH(7)',
        atoms='C:1 H:2 O:2',
        thermo=(NASA([100.00, 993.73],
                     [ 3.76241335E+00, -9.43947850E-04,  3.38781957E-05,
                      -4.04987780E-08,  1.43988412E-11, -4.68212105E+04,
                       7.63273333E+00]),
                NASA([993.73, 5000.00],
                     [ 5.64497050E+00,  7.55187503E-03, -3.20854541E-06,
                       6.58926362E-10, -5.05061286E-14, -4.79889887E+04,
                      -5.43086107E+00])),
        transport=gas_transport(geom='nonlinear',
                                diam=3.626,
                                well_depth=481.8,
                                dipole=1.7,
                                rot_relax=1.0))

species(name='CH3OH(8)',
        atoms='C:1 H:4 O:1',
        thermo=(NASA([100.00, 1035.75],
                     [ 3.84006214E+00,  1.38241998E-03,  1.91667191E-05,
                      -2.01568660E-08,  6.39102259E-12, -2.56083087E+04,
                       5.90978137E+00]),
                NASA([1035.75, 5000.00],
                     [ 2.79184298E+00,  1.15827852E-02, -4.51551928E-06,
                       8.21206706E-10, -5.67063250E-14, -2.57211674E+04,
                       9.41061586E+00])),
        transport=gas_transport(geom='nonlinear',
                                diam=3.626,
                                well_depth=481.802,
                                rot_relax=1.0))

species(name='HCOOCH3(9)',
        atoms='C:2 H:4 O:2',
        thermo=(NASA([100.00, 1141.77],
                     [ 3.28123251E+00,  1.13180591E-02,  1.84477587E-05,
                      -2.41945197E-08,  7.75136395E-12, -4.46725565E+04,
                       1.20363735E+01]),
                NASA([1141.77, 5000.00],
                     [ 4.90989100E+00,  1.87529727E-02, -8.58328635E-06,
                       1.66847339E-09, -1.18612079E-13, -4.59010044E+04,
                       2.12202036E-01])),
        transport=gas_transport(geom='nonlinear',
                                diam=5.234,
                                well_depth=377.356))

species(name='H(23)',
        atoms='H:1',
        thermo=(NASA([100.00, 3459.60],
                     [ 2.50000000E+00,  9.24384602E-15, -1.36779837E-17,
                       6.66184769E-21, -1.00106912E-24,  2.54742178E+04,
                      -4.44972896E-01]),
                NASA([3459.60, 5000.00],
                     [ 2.49999999E+00,  9.20455546E-12, -3.58608293E-15,
                       6.15198922E-19, -3.92041801E-23,  2.54742178E+04,
                      -4.44972842E-01])),
        transport=gas_transport(geom='atom',
                                diam=2.05,
                                well_depth=145.0))

species(name='HCO(31)',
        atoms='C:1 H:1 O:1',
        thermo=(NASA([100.00, 1112.10],
                     [ 4.05936407E+00, -1.73846452E-03,  9.14981041E-06,
                      -8.01131526E-09,  2.25737264E-12,  3.84377617E+03,
                       3.32449702E+00]),
                NASA([1112.10, 5000.00],
                     [ 3.05136186E+00,  4.11706437E-03, -1.75586433E-06,
                       3.29302821E-10, -2.29174030E-14,  3.93007923E+03,
                       7.67464289E+00])),
        transport=gas_transport(geom='nonlinear',
                                diam=3.59,
                                well_depth=498.002))

species(name='CH4(39)',
        atoms='C:1 H:4',
        thermo=(NASA([100.00, 1084.12],
                     [ 4.20541524E+00, -5.35557362E-03,  2.51123265E-05,
                      -2.13762843E-08,  5.97523937E-12, -1.01619433E+04,
                      -9.21279283E-01]),
                NASA([1084.12, 5000.00],
                     [ 9.08265721E-01,  1.14540858E-02, -4.57173828E-06,
                       8.29191671E-10, -5.66314895E-14, -9.71997444E+03,
                       1.39930944E+01])),
        transport=gas_transport(geom='nonlinear',
                                diam=3.746,
                                well_depth=141.4,
                                polar=2.6,
                                rot_relax=13.0))

species(name='CH4O2(169)',
        atoms='C:1 H:4 O:2',
        thermo=(NASA([10.00, 639.76],
                     [ 3.92739000E+00,  3.97483000E-03,  6.56102000E-05,
                      -1.23760000E-07,  6.75141000E-11, -4.82805000E+04,
                       6.35739000E+00]),
                NASA([639.76, 3000.00],
                     [ 4.46055000E+00,  1.93316000E-02, -1.42176000E-05,
                       5.09053000E-09, -6.81740000E-13, -4.87312000E+04,
                       1.03399000E+00])),
        transport=gas_transport(geom='nonlinear',
                                diam=5.898,
                                well_depth=436.691))

species(name='C2H4O(229)',
        atoms='C:2 H:4 O:1',
        thermo=(NASA([100.00, 1028.81],
                     [ 3.57991319E+00,  5.18996203E-03,  2.26893060E-05,
                      -2.73736957E-08,  9.28455869E-12, -2.13697369E+04,
                       8.96975431E+00]),
                NASA([1028.81, 5000.00],
                     [ 4.08568882E+00,  1.39060358E-02, -5.59365394E-06,
                       1.04608143E-09, -7.38729265E-14, -2.20391558E+04,
                       3.76773341E+00])),
        transport=gas_transport(geom='nonlinear',
                                diam=3.97,
                                well_depth=436.001,
                                rot_relax=2.0))

species(name='C2H6O(234)',
        atoms='C:2 H:6 O:1',
        thermo=(NASA([100.00, 984.00],
                     [ 3.24025884E+00,  1.04859660E-02,  2.63967401E-05,
                      -3.69293176E-08,  1.36710427E-11, -2.99902844E+04,
                       1.11433043E+01]),
                NASA([984.00, 5000.00],
                     [ 5.68494415E+00,  1.61313246E-02, -5.96365484E-06,
                       1.08897147E-09, -7.69620396E-14, -3.12258222E+04,
                      -4.44490663E+00])),
        transport=gas_transport(geom='nonlinear',
                                diam=4.53,
                                well_depth=362.6,
                                rot_relax=1.5))

species(name='OCHCO(260)',
        atoms='C:2 H:1 O:2',
        thermo=(NASA([100.00, 1504.27],
                     [ 3.25386274E+00,  1.54074443E-02, -1.14325740E-05,
                       4.29105321E-09, -6.58700917E-13, -9.05853319E+03,
                       1.11538825E+01]),
                NASA([1504.27, 5000.00],
                     [ 6.43152166E+00,  6.95779639E-03, -3.00696666E-06,
                       5.56993159E-10, -3.81282416E-14, -1.00145509E+04,
                      -5.47396858E+00])),
        transport=gas_transport(geom='nonlinear',
                                diam=4.01,
                                well_depth=440.2,
                                rot_relax=2.0))

species(name='X(1)',
        atoms='X:1',
        thermo=(NASA([100.00, 1554.80],
                     [ 7.10139498E-03, -4.25619522E-05,  8.98533016E-08,
                      -7.80193649E-11,  2.32465471E-14, -8.76101712E-01,
                      -3.11211229E-02]),
                NASA([1554.80, 5000.00],
                     [ 1.60299900E-01, -2.52235409E-04,  1.14181275E-07,
                      -1.21471653E-11,  3.85790025E-16, -7.08100885E+01,
                      -9.09527530E-01])))

species(name='H*(10)',
        atoms='H:1 X:1',
        thermo=(NASA([100.00, 952.91],
                     [-3.80965452E-01,  5.47228709E-03,  2.60912778E-06,
                      -9.64961980E-09,  4.63946753E-12, -1.40561079E+03,
                       1.01725550E+00]),
                NASA([952.91, 5000.00],
                     [ 2.80339655E+00, -5.41047017E-04,  4.99507978E-07,
                      -7.54963647E-11,  3.06772366E-15, -2.34636021E+03,
                      -1.59436787E+01])))

species(name='O*(11)',
        atoms='O:1 X:1',
        thermo=(NASA([100.00, 888.26],
                     [-7.59007329E-01,  1.89867771E-02, -3.82470955E-05,
                       3.43554391E-08, -1.13972478E-11, -2.18355758E+04,
                       1.76015370E+00]),
                NASA([888.26, 5000.00],
                     [ 1.89892178E+00,  2.03297975E-03, -1.19978087E-06,
                       2.32684304E-10, -1.53511352E-14, -2.21111158E+04,
                      -9.64096026E+00])))

species(name='OH*(12)',
        atoms='H:1 O:1 X:1',
        thermo=(NASA([100.00, 914.58],
                     [-1.29513706E+00,  3.36476246E-02, -7.07717851E-05,
                       6.54315116E-08, -2.19410183E-11, -2.16453744E+04,
                       4.37624874E+00]),
                NASA([914.58, 5000.00],
                     [ 2.43515780E+00,  4.64644986E-03, -2.40014139E-06,
                       4.26415498E-10, -2.60661215E-14, -2.17971243E+04,
                      -1.03865094E+01])))

species(name='H2O*(13)',
        atoms='H:2 O:1 X:1',
        thermo=(NASA([100.00, 912.85],
                     [-1.34340138E+00,  3.66695539E-02, -7.99480721E-05,
                       7.74125241E-08, -2.68665364E-11, -3.23490305E+04,
                       1.10237667E+01]),
                NASA([912.85, 5000.00],
                     [ 1.12158920E+00,  8.16639256E-03, -4.02358034E-06,
                       7.20420773E-10, -4.51442235E-14, -3.20615235E+04,
                       3.39615620E+00])))

species(name='CO*(14)',
        atoms='C:1 O:1 X:1',
        thermo=(NASA([100.00, 891.33],
                     [-1.38214670E+00,  3.75306103E-02, -8.29761135E-05,
                       8.09705358E-08, -2.85472623E-11, -2.25369973E+04,
                       4.35449609E+00]),
                NASA([891.33, 5000.00],
                     [ 1.38092053E+00,  8.05716548E-03, -4.64307501E-06,
                       8.91167184E-10, -5.90045403E-14, -2.23513288E+04,
                      -4.85325804E+00])))

species(name='CO2*(15)',
        atoms='C:1 O:2 X:1',
        thermo=(NASA([100.00, 953.60],
                     [ 3.09268416E+00,  5.29285051E-03,  8.99424169E-06,
                      -1.67126189E-08,  7.04895731E-12, -4.52128351E+04,
                      -5.10054525E+00]),
                NASA([953.60, 5000.00],
                     [ 5.99804988E+00,  2.27482238E-03, -6.81075329E-07,
                       1.34428306E-10, -1.11506248E-14, -4.61838333E+04,
                      -2.11650815E+01])))

species(name='HCO*(16)',
        atoms='C:1 H:1 O:1 X:1',
        thermo=(NASA([100.00, 873.22],
                     [-1.43679537E+00,  3.69243480E-02, -7.17904167E-05,
                       6.73532499E-08, -2.35178167E-11, -2.16948351E+04,
                       8.27561789E+00]),
                NASA([873.22, 5000.00],
                     [ 1.83280181E+00,  1.00778749E-02, -5.28533237E-06,
                       1.01351974E-09, -6.85184058E-14, -2.18133254E+04,
                      -4.46392059E+00])))

species(name='HCOO*(17)',
        atoms='C:1 H:1 O:2 X:1',
        thermo=(NASA([100.00, 956.09],
                     [ 3.40105120E+00,  8.17066980E-03,  1.08107737E-05,
                      -2.16698753E-08,  9.26697424E-12, -3.42532449E+04,
                      -8.40035312E+00]),
                NASA([956.09, 5000.00],
                     [ 7.56067772E+00,  3.23174228E-03, -9.94984934E-07,
                       1.97189961E-10, -1.62207113E-14, -3.56182951E+04,
                      -3.12604645E+01])))

species(name='COOH*(18)',
        atoms='C:1 H:1 O:2 X:1',
        thermo=(NASA([100.00, 943.40],
                     [ 3.72340236E+00, -4.27932838E-03,  5.09064157E-05,
                      -6.55312082E-08,  2.52469411E-11, -4.42463163E+04,
                      -7.82080376E+00]),
                NASA([943.40, 5000.00],
                     [ 8.73074431E+00,  9.99296790E-04,  3.63420911E-07,
                      -2.85465672E-11, -4.35216598E-15, -4.63707920E+04,
                      -3.79389019E+01])))

species(name='CH2O*(19)',
        atoms='C:1 H:2 O:1 X:1',
        thermo=(NASA([100.00, 879.32],
                     [-1.46696967E+00,  4.13871743E-02, -8.87616535E-05,
                       9.10110992E-08, -3.36607081E-11, -2.03002411E+04,
                       1.57178332E+01]),
                NASA([879.32, 5000.00],
                     [-8.92927768E-01,  1.66196503E-02, -8.71596166E-06,
                       1.66816675E-09, -1.12503958E-13, -1.95446346E+04,
                       1.78928299E+01])))

species(name='CH3O*(20)',
        atoms='C:1 H:3 O:1 X:1',
        thermo=(NASA([100.00, 857.67],
                     [-1.68419050E+00,  4.28019546E-02, -7.50767196E-05,
                       7.03658026E-08, -2.50908186E-11, -2.23136964E+04,
                       7.76412161E+00]),
                NASA([857.67, 5000.00],
                     [ 1.14786899E+00,  1.71346045E-02, -8.39649029E-06,
                       1.59810518E-09, -1.08977854E-13, -2.23412385E+04,
                      -2.79262277E+00])))

species(name='CH3O2*(21)',
        atoms='C:1 H:3 O:2 X:1',
        thermo=(NASA([100.00, 932.26],
                     [ 3.21916271E+00,  6.71721821E-03,  3.72271942E-05,
                      -5.73634070E-08,  2.36261155E-11, -3.94342256E+04,
                      -6.14518402E+00]),
                NASA([932.26, 5000.00],
                     [ 1.03102378E+01,  3.04296758E-03,  9.70761635E-08,
                      -3.19266012E-11, -2.13473240E-15, -4.19188581E+04,
                      -4.60928875E+01])))

species(name='CH3OH*(22)',
        atoms='C:1 H:4 O:1 X:1',
        thermo=(NASA([100.00, 850.41],
                     [-1.64009981E+00,  4.09976611E-02, -6.66166227E-05,
                       6.12112419E-08, -2.17734200E-11, -3.05087359E+04,
                       1.38245399E+01]),
                NASA([850.41, 5000.00],
                     [ 1.01837261E+00,  1.82966199E-02, -8.58976461E-06,
                       1.62231337E-09, -1.10732500E-13, -3.05921894E+04,
                       3.59753323E+00])))

species(name='CH3OX(44)',
        atoms='C:1 H:3 O:1 X:1',
        thermo=(NASA([100.00, 813.94],
                     [-1.68232083E+00,  3.97249389E-02, -5.96107529E-05,
                       4.86920970E-08, -1.58049204E-11, -2.91607679E+04,
                       8.26687835E+00]),
                NASA([813.94, 5000.00],
                     [ 3.25579221E+00,  1.30434803E-02, -5.99158702E-06,
                       1.13138422E-09, -7.77149614E-14, -2.98846770E+04,
                      -1.40488937E+01])))

species(name='CH3O2X(47)',
        atoms='C:1 H:3 O:2 X:1',
        thermo=(NASA([100.00, 746.21],
                     [ 3.00755399E+00,  2.43556128E-02, -3.26149688E-05,
                       3.02343583E-08, -1.19234123E-11, -4.63652228E+04,
                      -5.97034441E+00]),
                NASA([746.21, 5000.00],
                     [ 3.93253861E+00,  1.57288387E-02, -7.89951120E-06,
                       1.56520148E-09, -1.11218613E-13, -4.64011350E+04,
                      -9.47771500E+00])))

species(name='H2X(48)',
        atoms='H:2 X:1',
        thermo=(NASA([100.00, 911.33],
                     [-1.27856724E+00,  3.68010102E-02, -8.90296992E-05,
                       8.91132730E-08, -3.14511582E-11, -1.33397682E+03,
                       1.13160562E+01]),
                NASA([911.33, 5000.00],
                     [ 6.45631937E-01,  6.69563800E-03, -3.82690860E-06,
                       7.04725296E-10, -4.41024465E-14, -7.85256799E+02,
                       7.14633349E+00])))

species(name='CH2O2X(49)',
        atoms='C:1 H:2 O:2 X:1',
        thermo=(NASA([100.00, 950.51],
                     [ 3.66942277E+00, -3.78107024E-03,  5.53417866E-05,
                      -7.04158319E-08,  2.67783312E-11, -4.98129453E+04,
                      -8.38223347E+00]),
                NASA([950.51, 5000.00],
                     [ 8.66767333E+00,  3.45619294E-03, -6.94093723E-07,
                       1.78231295E-10, -1.93189703E-14, -5.20402350E+04,
                      -3.89602390E+01])))

species(name='CH3X(50)',
        atoms='C:1 H:3 X:1',
        thermo=(NASA([100.00, 848.30],
                     [-1.21090496E+00,  2.92390681E-02, -4.49011079E-05,
                       3.86009808E-08, -1.30361041E-11, -1.29919995E+02,
                       6.80939750E+00]),
                NASA([848.30, 5000.00],
                     [ 1.62290877E+00,  1.12987268E-02, -5.08316908E-06,
                       9.46833581E-10, -6.42885536E-14, -4.45984900E+02,
                      -5.42501059E+00])))

species(name='CHOX(166)',
        atoms='C:1 H:1 O:1 X:1',
        thermo=(NASA([100.00, 878.75],
                     [-1.56645263E+00,  3.83557835E-02, -7.06856579E-05,
                       6.19500504E-08, -2.04269209E-11, -1.27680581E+04,
                       5.18241341E+00]),
                NASA([878.75, 5000.00],
                     [ 3.55127708E+00,  7.05361547E-03, -3.58667603E-06,
                       6.76599584E-10, -4.51262292E-14, -1.33583603E+04,
                      -1.70872155E+01])))

species(name='CH2OX(167)',
        atoms='C:1 H:2 O:1 X:1',
        thermo=(NASA([100.00, 648.58],
                     [-1.34991375E+00,  3.25573585E-02, -4.55834835E-05,
                       3.22740051E-08, -8.14728247E-12, -1.41210936E+04,
                       6.84667740E+00]),
                NASA([648.58, 5000.00],
                     [ 2.89871338E+00,  1.07013277E-02, -5.08861557E-06,
                       9.82711256E-10, -6.86706754E-14, -1.47636304E+04,
                      -1.25157474E+01])))

species(name='SX(186)',
        atoms='C:2 H:3 O:1 X:1',
        thermo=(NASA([100.00, 959.41],
                     [ 3.43716970E+00,  5.75787653E-03,  2.83340578E-05,
                      -3.94573831E-08,  1.51208124E-11, -2.27458589E+04,
                      -8.72714024E+00]),
                NASA([959.41, 5000.00],
                     [ 6.61783976E+00,  9.20333655E-03, -3.17283386E-06,
                       5.86105547E-10, -4.31700926E-14, -2.41250501E+04,
                      -2.79472916E+01])))

species(name='CH4X(236)',
        atoms='C:1 H:4 X:1',
        thermo=(NASA([100.00, 886.29],
                     [-1.38687449E+00,  4.00450548E-02, -8.37917184E-05,
                       8.75651042E-08, -3.27875900E-11, -1.09112184E+04,
                       1.78811047E+01]),
                NASA([886.29, 5000.00],
                     [-2.16847811E+00,  1.99494198E-02, -9.80013650E-06,
                       1.83536669E-09, -1.22521982E-13, -9.84485611E+03,
                       2.67918007E+01])))

species(name='SX(257)',
        atoms='C:1 H:4 O:2 X:1',
        thermo=(NASA([100.00, 961.78],
                     [ 2.51547751E+00,  2.72656759E-02, -1.57726054E-05,
                      -3.63315792E-09,  4.55721915E-12, -4.95909859E+04,
                       6.65625873E+00]),
                NASA([961.78, 5000.00],
                     [ 1.07628667E+01,  5.61558482E-03, -1.73662461E-06,
                       3.13455348E-10, -2.34462632E-14, -5.17625174E+04,
                      -3.58529657E+01])))

species(name='SX(408)',
        atoms='C:2 H:5 O:1 X:1',
        thermo=(NASA([100.00, 977.79],
                     [ 3.02509182E+00,  1.44943842E-02,  2.01657492E-05,
                      -3.41812476E-08,  1.34836434E-11, -3.06764901E+04,
                      -8.59264429E+00]),
                NASA([977.79, 5000.00],
                     [ 7.34629683E+00,  1.39045986E-02, -5.14335212E-06,
                       9.47746932E-10, -6.78684500E-14, -3.23383826E+04,
                      -3.35199228E+01])))

species(name='SX(419)',
        atoms='C:2 H:3 O:1 X:1',
        thermo=(NASA([100.00, 942.69],
                     [ 3.66119909E+00, -4.78707743E-03,  6.63029764E-05,
                      -8.28688136E-08,  3.13698384E-11, -2.00410058E+04,
                      -7.05122790E+00]),
                NASA([942.69, 5000.00],
                     [ 8.38336123E+00,  6.48614935E-03, -1.45557932E-06,
                       2.82908632E-10, -2.56883414E-14, -2.23225202E+04,
                      -3.69331764E+01])))

species(name='SX(460)',
        atoms='C:2 H:6 O:1 X:1',
        thermo=(NASA([100.00, 979.21],
                     [ 3.01267946E+00,  1.52611132E-02,  1.95746818E-05,
                      -3.27781349E-08,  1.27836971E-11, -2.81446872E+04,
                      -3.22290722E+00]),
                NASA([979.21, 5000.00],
                     [ 6.70649326E+00,  1.60176319E-02, -5.85685178E-06,
                       1.06140016E-09, -7.47876266E-14, -2.96277701E+04,
                      -2.48448455E+01])))

species(name='SX(525)',
        atoms='C:2 H:4 O:1 X:1',
        thermo=(NASA([100.00, 1258.42],
                     [ 3.23905309E+00,  1.45283658E-02,  5.08984756E-07,
                      -5.82821072E-09,  1.98753156E-12, -2.27339210E+04,
                       5.45572664E+00]),
                NASA([1258.42, 5000.00],
                     [ 4.93026320E+00,  1.46082110E-02, -6.08902770E-06,
                       1.11217769E-09, -7.56507660E-14, -2.35915420E+04,
                      -4.80844635E+00])))

species(name='SX(631)',
        atoms='C:2 H:2 O:1 X:1',
        thermo=(NASA([100.00, 927.44],
                     [ 3.57136429E+00, -6.40876769E-03,  7.49807481E-05,
                      -9.96118019E-08,  3.94846832E-11, -2.46675053E+04,
                      -1.08739789E+01]),
                NASA([927.44, 5000.00],
                     [ 1.21143409E+01, -2.56823985E-03,  2.96571819E-06,
                      -5.44493192E-10,  2.97365034E-14, -2.80019174E+04,
                      -6.08788321E+01])))

species(name='C2HOX(645)',
        atoms='C:2 H:1 O:1 X:1',
        thermo=(NASA([100.00, 922.94],
                     [ 3.57759077E+00, -2.02755438E-04,  3.97391514E-05,
                      -5.64295916E-08,  2.29851541E-11, -2.95454575E+04,
                      -1.10316123E+01]),
                NASA([922.94, 5000.00],
                     [ 9.48327136E+00, -1.34480368E-03,  1.85321411E-06,
                      -3.56644376E-10,  2.05659227E-14, -3.16770529E+04,
                      -4.46916968E+01])))

#-------------------------------------------------------------------------------
# Reaction data
#-------------------------------------------------------------------------------

# Reaction 1
reaction('H2(2) + CO(3) <=> CH2O(6)', [2.890000e+09, 1.16, 82.1],
         id='gas-1')

# Reaction 2
reaction('H2O(5) + CO(3) <=> HCOOH(7)', [2.540000e-01, 3.7, 53.36],
         id='gas-2')

# Reaction 3
reaction('H2(2) + CO2(4) <=> HCOOH(7)', [1.510000e+09, 1.23, 73.9],
         id='gas-3',
         options='duplicate')

# Reaction 4
reaction('CO(3) + CH3OH(8) <=> HCOOCH3(9)', [1.270000e-01, 3.7, 53.36],
         id='gas-4')

# Reaction 5
reaction('H2(2) + CO2(4) <=> HCOOH(7)', [1.510000e+09, 1.23, 73.9],
         id='gas-5',
         options='duplicate')
